@<TRIPOS>MOLECULE
DB00204
   56    57     0     0     0
SMALL
USER_CHARGES

@<TRIPOS>ATOM
      1 S1          1.6992    2.8336    0.9513 S.o2      1 <0>         0.0403
      2 S2          5.6751   -0.9533   -0.8073 S.o2      1 <0>         0.0403
      3 O1         -0.7972   -1.4599    0.2556 O.3       1 <0>        -0.4907
      4 O2          2.7096    3.7707    1.4058 O.2       1 <0>        -0.1555
      5 O3          1.3311    1.6936    1.7675 O.2       1 <0>        -0.1555
      6 O4          7.0217   -1.4606   -0.9939 O.2       1 <0>        -0.1555
      7 O5          4.9473   -0.3697   -1.9167 O.2       1 <0>        -0.1555
      8 N1         -3.6214   -1.2717    0.3411 N.3       1 <0>        -0.3018
      9 N2          0.3050    3.7252    0.4743 N.pl3     1 <0>        -0.2209
     10 N3          4.7380   -2.1704   -0.0283 N.pl3     1 <0>        -0.2209
     11 C1         -4.2518   -0.6445   -0.8200 C.3       1 <0>         0.0027
     12 C2         -4.5289    0.8367   -0.5593 C.3       1 <0>        -0.0149
     13 C3         -2.9297   -2.4984   -0.0534 C.3       1 <0>         0.0328
     14 C4         -3.2562    1.5982   -0.2867 C.ar      1 <0>        -0.0460
     15 C5         -1.5850   -2.1768   -0.6859 C.3       1 <0>         0.1022
     16 C6         -4.6184   -1.5562    1.3725 C.3       1 <0>        -0.0126
     17 C7         -2.5523    2.1798   -1.3412 C.ar      1 <0>        -0.0567
     18 C8         -2.7822    1.7201    1.0194 C.ar      1 <0>        -0.0567
     19 C9         -0.9006    3.0051    0.2166 C.ar      1 <0>         0.0477
     20 C10        -1.3745    2.8833   -1.0896 C.ar      1 <0>        -0.0391
     21 C11        -1.6044    2.4234    1.2712 C.ar      1 <0>        -0.0391
     22 C12         0.5602   -1.6352    0.1861 C.ar      1 <0>         0.1207
     23 C13         3.3237   -1.9895    0.0445 C.ar      1 <0>         0.0479
     24 C14         1.3370   -1.5288    1.3398 C.ar      1 <0>        -0.0182
     25 C15         1.1652   -1.9188   -1.0384 C.ar      1 <0>        -0.0182
     26 C16         2.7187   -1.7059    1.2690 C.ar      1 <0>        -0.0359
     27 C17         2.5469   -2.0958   -1.1092 C.ar      1 <0>        -0.0359
     28 C18         2.2371    2.2216   -0.6300 C.3       1 <0>         0.0736
     29 C19         5.7561    0.2600    0.4910 C.3       1 <0>         0.0736
     30 H1         -3.6120   -0.7034   -1.7081 H         1 <0>         0.0430
     31 H2         -5.1852   -1.1552   -1.0912 H         1 <0>         0.0430
     32 H3         -5.0237    1.2664   -1.4402 H         1 <0>         0.0326
     33 H4         -5.2382    0.9849    0.2633 H         1 <0>         0.0326
     34 H5         -3.5410   -3.1147   -0.7244 H         1 <0>         0.0460
     35 H6         -2.7238   -3.1028    0.8403 H         1 <0>         0.0460
     36 H7         -1.1234   -3.1396   -0.9431 H         1 <0>         0.0709
     37 H8         -1.6845   -1.5869   -1.6027 H         1 <0>         0.0709
     38 H9         -5.1183   -0.6477    1.7216 H         1 <0>         0.0391
     39 H10        -5.3846   -2.2590    1.0248 H         1 <0>         0.0391
     40 H11        -4.1379   -1.9893    2.2576 H         1 <0>         0.0391
     41 H12        -2.9098    2.0893   -2.3635 H         1 <0>         0.0621
     42 H13        -3.3242    1.2828    1.8533 H         1 <0>         0.0621
     43 H14        -0.8331    3.3305   -1.9193 H         1 <0>         0.0636
     44 H15        -1.2555    2.5213    2.2959 H         1 <0>         0.0636
     45 H16         0.4829    4.4912   -0.1893 H         1 <0>         0.1733
     46 H17         0.8707   -1.3085    2.2961 H         1 <0>         0.0655
     47 H18         0.6012   -1.9843   -1.9639 H         1 <0>         0.0655
     48 H19         3.3141   -1.6187    2.1741 H         1 <0>         0.0638
     49 H20         3.0029   -2.3226   -2.0693 H         1 <0>         0.0638
     50 H21         5.1533   -2.5581    0.8296 H         1 <0>         0.1733
     51 H22         3.1778    1.6902   -0.4873 H         1 <0>         0.0482
     52 H23         1.4862    1.5365   -1.0263 H         1 <0>         0.0482
     53 H24         2.3930    3.0665   -1.3034 H         1 <0>         0.0482
     54 H25         6.2524   -0.1825    1.3571 H         1 <0>         0.0482
     55 H26         4.7506    0.5911    0.7488 H         1 <0>         0.0482
     56 H27         6.3403    1.1067    0.1238 H         1 <0>         0.0482
@<TRIPOS>BOND
     1    1    4 2
     2    1    5 2
     3    1    9 1
     4    1   28 1
     5    2    6 2
     6    2    7 2
     7    2   10 1
     8    2   29 1
     9    3   15 1
    10    3   22 1
    11    8   11 1
    12    8   13 1
    13    8   16 1
    14    9   19 1
    15    9   45 1
    16   10   23 1
    17   10   50 1
    18   11   12 1
    19   11   30 1
    20   11   31 1
    21   12   14 1
    22   12   32 1
    23   12   33 1
    24   13   15 1
    25   13   34 1
    26   13   35 1
    27   14   17 ar
    28   14   18 ar
    29   15   36 1
    30   15   37 1
    31   16   38 1
    32   16   39 1
    33   16   40 1
    34   17   20 ar
    35   17   41 1
    36   18   21 ar
    37   18   42 1
    38   19   20 ar
    39   19   21 ar
    40   20   43 1
    41   21   44 1
    42   22   24 ar
    43   22   25 ar
    44   23   26 ar
    45   23   27 ar
    46   24   26 ar
    47   24   46 1
    48   25   27 ar
    49   25   47 1
    50   26   48 1
    51   27   49 1
    52   28   51 1
    53   28   52 1
    54   28   53 1
    55   29   54 1
    56   29   55 1
    57   29   56 1
