@<TRIPOS>MOLECULE
DB00688
   62    64     0     0     0
SMALL
USER_CHARGES

@<TRIPOS>ATOM
      1 O1          5.8342    0.6605    0.5219 O.3       1 <0>        -0.3772
      2 O2          2.3200   -2.2064   -1.9760 O.3       1 <0>        -0.4563
      3 O3         -0.2215    2.6892    0.5091 O.3       1 <0>        -0.4633
      4 O4         -2.5658   -2.6744    1.3034 O.3       1 <0>        -0.4944
      5 O5         -1.3592   -0.0559   -2.5274 O.3       1 <0>        -0.5055
      6 O6          1.3902   -0.6204   -3.3761 O.2       1 <0>        -0.2448
      7 O7         -1.2835    2.0808    2.4669 O.2       1 <0>        -0.2508
      8 N1          3.0623    1.0702    0.0217 N.3       1 <0>        -0.2948
      9 C1          3.6774    1.4550    1.2995 C.3       1 <0>         0.0225
     10 C2          4.0569    1.1416   -1.0578 C.3       1 <0>         0.0225
     11 C3          1.9110    1.9197   -0.2766 C.3       1 <0>         0.0334
     12 C4          4.8834    0.5637    1.5832 C.3       1 <0>         0.0604
     13 C5          5.2532    0.2568   -0.7185 C.3       1 <0>         0.0604
     14 C6          0.5328   -2.5271   -0.5947 C.ar      1 <0>         0.0136
     15 C7         -1.9672   -1.3626   -0.6106 C.ar      1 <0>         0.0404
     16 C8          0.1917   -1.5844   -1.5432 C.ar      1 <0>         0.1074
     17 C9         -0.3779   -2.9093    0.3730 C.ar      1 <0>        -0.0011
     18 C10         0.8766    1.8312    0.8341 C.3       1 <0>         0.1051
     19 C11        -1.6444   -2.3164    0.3612 C.ar      1 <0>         0.1303
     20 C12        -1.0510   -0.9798   -1.5823 C.ar      1 <0>         0.1381
     21 C13        -3.3402   -0.7378   -0.6038 C.3       1 <0>        -0.0023
     22 C14         1.9174   -2.9800   -0.8176 C.3       1 <0>         0.1191
     23 C15        -3.3887    0.5071    0.2353 C.2       1 <0>        -0.0805
     24 C16         1.3276   -1.3759   -2.4268 C.2       1 <0>         0.3435
     25 C17        -3.6788    2.8906    0.8589 C.3       1 <0>        -0.0219
     26 C18        -3.6888    1.7616   -0.1553 C.2       1 <0>        -0.0757
     27 C19        -0.0141   -3.9288    1.3980 C.3       1 <0>        -0.0358
     28 C20        -2.3410    3.6241    0.9398 C.3       1 <0>         0.0486
     29 C21        -1.2356    2.7148    1.4205 C.2       1 <0>         0.3074
     30 C22        -4.0481    2.1633   -1.5593 C.3       1 <0>        -0.0438
     31 C23        -3.4250   -3.7648    0.9832 C.3       1 <0>         0.0788
     32 H1          3.0039    1.3100    2.1479 H         1 <0>         0.0449
     33 H2          3.9927    2.5060    1.2755 H         1 <0>         0.0449
     34 H3          4.3970    2.1765   -1.1933 H         1 <0>         0.0449
     35 H4          3.6198    0.8020   -2.0032 H         1 <0>         0.0449
     36 H5          1.4408    1.6065   -1.2173 H         1 <0>         0.0460
     37 H6          2.2061    2.9677   -0.4203 H         1 <0>         0.0460
     38 H7          4.5897   -0.4850    1.7161 H         1 <0>         0.0572
     39 H8          5.3794    0.8879    2.5037 H         1 <0>         0.0572
     40 H9          6.0205    0.3547   -1.4929 H         1 <0>         0.0572
     41 H10         4.9704   -0.8016   -0.6635 H         1 <0>         0.0572
     42 H11         1.2632    2.1872    1.7923 H         1 <0>         0.0710
     43 H12         0.5141    0.8020    0.9437 H         1 <0>         0.0710
     44 H13        -4.0895   -1.4342   -0.2123 H         1 <0>         0.0358
     45 H14        -3.6673   -0.5712   -1.6342 H         1 <0>         0.0358
     46 H15         1.9794   -4.0421   -1.0688 H         1 <0>         0.0749
     47 H16         2.5833   -2.7282    0.0122 H         1 <0>         0.0749
     48 H17        -3.1658    0.3449    1.2896 H         1 <0>         0.0575
     49 H18        -4.4722    3.6070    0.6119 H         1 <0>         0.0315
     50 H19        -3.9389    2.4986    1.8515 H         1 <0>         0.0315
     51 H20         1.0653   -3.9556    1.5791 H         1 <0>         0.0279
     52 H21        -0.4797   -3.7087    2.3646 H         1 <0>         0.0279
     53 H22        -0.3331   -4.9229    1.0694 H         1 <0>         0.0279
     54 H23        -2.4061    4.4634    1.6410 H         1 <0>         0.0381
     55 H24        -2.0796    4.0463   -0.0376 H         1 <0>         0.0381
     56 H25        -3.3475    2.9219   -1.9233 H         1 <0>         0.0274
     57 H26        -5.0563    2.5902   -1.5792 H         1 <0>         0.0274
     58 H27        -4.0305    1.3414   -2.2762 H         1 <0>         0.0274
     59 H28        -0.5917    0.0838   -3.1067 H         1 <0>         0.2922
     60 H29        -3.7090   -3.7696   -0.0745 H         1 <0>         0.0660
     61 H30        -2.9312   -4.7086    1.2326 H         1 <0>         0.0660
     62 H31        -4.3313   -3.6765    1.5886 H         1 <0>         0.0660
@<TRIPOS>BOND
     1    1   12 1
     2    1   13 1
     3    2   22 1
     4    2   24 1
     5    3   18 1
     6    3   29 1
     7    4   19 1
     8    4   31 1
     9    5   20 1
    10    5   59 1
    11    6   24 2
    12    7   29 2
    13    8    9 1
    14    8   10 1
    15    8   11 1
    16    9   12 1
    17    9   32 1
    18    9   33 1
    19   10   13 1
    20   10   34 1
    21   10   35 1
    22   11   18 1
    23   11   36 1
    24   11   37 1
    25   12   38 1
    26   12   39 1
    27   13   40 1
    28   13   41 1
    29   14   16 ar
    30   14   17 ar
    31   14   22 1
    32   15   19 ar
    33   15   20 ar
    34   15   21 1
    35   16   20 ar
    36   16   24 1
    37   17   19 ar
    38   17   27 1
    39   18   42 1
    40   18   43 1
    41   21   23 1
    42   21   44 1
    43   21   45 1
    44   22   46 1
    45   22   47 1
    46   23   26 2
    47   23   48 1
    48   25   26 1
    49   25   28 1
    50   25   49 1
    51   25   50 1
    52   26   30 1
    53   27   51 1
    54   27   52 1
    55   27   53 1
    56   28   29 1
    57   28   54 1
    58   28   55 1
    59   30   56 1
    60   30   57 1
    61   30   58 1
    62   31   60 1
    63   31   61 1
    64   31   62 1
