@<TRIPOS>MOLECULE
DB00830
   28    29     0     0     0
SMALL
USER_CHARGES

@<TRIPOS>ATOM
      1 O1          0.9136    1.4509    0.5716 O.3       1 <0>        -0.3692
      2 N1          2.6006   -0.7281   -0.1596 N.3       1 <0>        -0.3086
      3 C1          1.1454   -0.9130   -0.0151 C.3       1 <0>         0.0353
      4 C2          0.4109    0.4202   -0.2942 C.3       1 <0>         0.0987
      5 C3          3.0626    0.3552    0.7095 C.3       1 <0>         0.0197
      6 C4          2.3163    1.6432    0.3968 C.3       1 <0>         0.0610
      7 C5         -1.0838    0.3389   -0.0632 C.ar      1 <0>        -0.0174
      8 C6          0.7110   -2.0269   -0.9698 C.3       1 <0>        -0.0470
      9 C7         -1.9483    1.1421   -0.8061 C.ar      1 <0>        -0.0561
     10 C8         -1.5940   -0.5389    0.8926 C.ar      1 <0>        -0.0561
     11 C9         -3.3248    1.0676   -0.5931 C.ar      1 <0>        -0.0614
     12 C10        -2.9705   -0.6136    1.1056 C.ar      1 <0>        -0.0614
     13 C11        -3.8358    0.1897    0.3628 C.ar      1 <0>        -0.0617
     14 H1          0.9974   -1.2525    1.0155 H         1 <0>         0.0486
     15 H2          0.5884    0.7244   -1.3360 H         1 <0>         0.0662
     16 H3          2.8120   -0.4889   -1.1289 H         1 <0>         0.1224
     17 H4          4.1384    0.5005    0.5678 H         1 <0>         0.0447
     18 H5          2.9067    0.0691    1.7565 H         1 <0>         0.0447
     19 H6          2.6320    2.4343    1.0844 H         1 <0>         0.0573
     20 H7          2.5146    1.9921   -0.6239 H         1 <0>         0.0573
     21 H8          0.8605   -1.7368   -2.0162 H         1 <0>         0.0246
     22 H9          1.2926   -2.9390   -0.7913 H         1 <0>         0.0246
     23 H10        -0.3424   -2.2922   -0.8440 H         1 <0>         0.0246
     24 H11        -1.5620    1.8314   -1.5521 H         1 <0>         0.0621
     25 H12        -0.9664   -1.1638    1.5168 H         1 <0>         0.0621
     26 H13        -3.9985    1.6936   -1.1707 H         1 <0>         0.0618
     27 H14        -3.3689   -1.2921    1.8543 H         1 <0>         0.0618
     28 H15        -4.9074    0.1328    0.5300 H         1 <0>         0.0618
@<TRIPOS>BOND
     1    1    4 1
     2    1    6 1
     3    2    3 1
     4    2    5 1
     5    2   16 1
     6    3    4 1
     7    3    8 1
     8    3   14 1
     9    4    7 1
    10    4   15 1
    11    5    6 1
    12    5   17 1
    13    5   18 1
    14    6   19 1
    15    6   20 1
    16    7    9 ar
    17    7   10 ar
    18    8   21 1
    19    8   22 1
    20    8   23 1
    21    9   11 ar
    22    9   24 1
    23   10   12 ar
    24   10   25 1
    25   11   13 ar
    26   11   26 1
    27   12   13 ar
    28   12   27 1
    29   13   28 1
