@<TRIPOS>MOLECULE
DB00982
   50    50     0     0     0
SMALL
USER_CHARGES

@<TRIPOS>ATOM
      1 O1          6.7157   -2.1628    1.8960 O.3       1 <0>        -0.4775
      2 O2          6.6474   -3.0103   -0.2173 O.2       1 <0>        -0.2458
      3 C1         -3.9161    0.7068    0.5360 C.3       1 <0>        -0.0099
      4 C2         -5.1119   -0.2036    0.9286 C.3       1 <0>        -0.0436
      5 C3         -5.4786   -1.1786   -0.1757 C.3       1 <0>        -0.0486
      6 C4         -2.7827   -0.1018   -0.1380 C.2       1 <0>        -0.0427
      7 C5         -4.2968   -2.0856   -0.4837 C.3       1 <0>        -0.0314
      8 C6         -2.9612   -1.3751   -0.5715 C.2       1 <0>        -0.0689
      9 C7         -3.4478    1.3845    1.8471 C.3       1 <0>        -0.0558
     10 C8         -4.4158    1.8034   -0.4325 C.3       1 <0>        -0.0558
     11 C9         -1.5203    0.6005   -0.2991 C.2       1 <0>        -0.0579
     12 C10        -1.8988   -2.2548   -1.1896 C.3       1 <0>        -0.0432
     13 C11        -0.3251    0.0134   -0.1244 C.2       1 <0>        -0.0586
     14 C12         0.9829    0.6534   -0.2672 C.2       1 <0>        -0.0504
     15 C13         1.0034    2.1164   -0.6470 C.3       1 <0>        -0.0397
     16 C14         2.1617    0.0206   -0.0808 C.2       1 <0>        -0.0588
     17 C15         3.5052    0.5590   -0.1966 C.2       1 <0>        -0.0613
     18 C16         4.6035   -0.1863    0.0177 C.2       1 <0>        -0.0586
     19 C17         5.9995    0.2588   -0.0669 C.2       1 <0>        -0.0437
     20 C18         6.2439    1.6944   -0.4556 C.3       1 <0>        -0.0395
     21 C19         6.9663   -0.6465    0.1857 C.2       1 <0>         0.0252
     22 C20         6.7529   -2.0664    0.5451 C.2       1 <0>         0.3298
     23 H1         -5.9893    0.4038    1.1847 H         1 <0>         0.0274
     24 H2         -4.8650   -0.7790    1.8319 H         1 <0>         0.0274
     25 H3         -5.7846   -0.6381   -1.0788 H         1 <0>         0.0269
     26 H4         -6.3377   -1.7866    0.1304 H         1 <0>         0.0269
     27 H5         -4.5135   -2.6012   -1.4273 H         1 <0>         0.0310
     28 H6         -4.2210   -2.8590    0.2915 H         1 <0>         0.0310
     29 H7         -3.0252    0.6510    2.5437 H         1 <0>         0.0238
     30 H8         -2.6834    2.1480    1.6640 H         1 <0>         0.0238
     31 H9         -4.2836    1.8829    2.3524 H         1 <0>         0.0238
     32 H10        -5.2985    2.3128   -0.0286 H         1 <0>         0.0238
     33 H11        -3.6574    2.5749   -0.6046 H         1 <0>         0.0238
     34 H12        -4.6893    1.3899   -1.4094 H         1 <0>         0.0238
     35 H13        -1.5881    1.6398   -0.6021 H         1 <0>         0.0621
     36 H14        -2.3512   -2.9638   -1.8937 H         1 <0>         0.0275
     37 H15        -1.3925   -2.8481   -0.4221 H         1 <0>         0.0275
     38 H16        -1.1722   -1.7038   -1.7917 H         1 <0>         0.0275
     39 H17        -0.2616   -1.0096    0.2361 H         1 <0>         0.0620
     40 H18         0.4529    2.7035    0.0981 H         1 <0>         0.0278
     41 H19         1.9810    2.5886   -0.7294 H         1 <0>         0.0278
     42 H20         0.5181    2.2562   -1.6204 H         1 <0>         0.0278
     43 H21         2.1206   -1.0347    0.1924 H         1 <0>         0.0620
     44 H22         3.6304    1.5988   -0.4642 H         1 <0>         0.0618
     45 H23         4.4385   -1.2282    0.2861 H         1 <0>         0.0620
     46 H24         5.8050    2.3796    0.2773 H         1 <0>         0.0278
     47 H25         7.3171    1.9116   -0.4996 H         1 <0>         0.0278
     48 H26         5.8293    1.9101   -1.4459 H         1 <0>         0.0278
     49 H27         8.0102   -0.3507    0.1247 H         1 <0>         0.0691
     50 H28         6.5835   -3.0879    2.1942 H         1 <0>         0.2954
@<TRIPOS>BOND
     1    1   22 1
     2    1   50 1
     3    2   22 2
     4    3    4 1
     5    3    6 1
     6    3    9 1
     7    3   10 1
     8    4    5 1
     9    4   23 1
    10    4   24 1
    11    5    7 1
    12    5   25 1
    13    5   26 1
    14    6    8 2
    15    6   11 1
    16    7    8 1
    17    7   27 1
    18    7   28 1
    19    8   12 1
    20    9   29 1
    21    9   30 1
    22    9   31 1
    23   10   32 1
    24   10   33 1
    25   10   34 1
    26   11   13 2
    27   11   35 1
    28   12   36 1
    29   12   37 1
    30   12   38 1
    31   13   14 1
    32   13   39 1
    33   14   15 1
    34   14   16 2
    35   15   40 1
    36   15   41 1
    37   15   42 1
    38   16   17 1
    39   16   43 1
    40   17   18 2
    41   17   44 1
    42   18   19 1
    43   18   45 1
    44   19   20 1
    45   19   21 2
    46   20   46 1
    47   20   47 1
    48   20   48 1
    49   21   22 1
    50   21   49 1
