@<TRIPOS>MOLECULE
DB00211
   36    36     0     0     0
SMALL
USER_CHARGES

@<TRIPOS>ATOM
      1 O1          0.3849    0.5589    1.9691 O.3       1 <0>        -0.3855
      2 O2         -0.9668   -2.5803    0.2931 O.3       1 <0>        -0.4947
      3 O3         -3.9936    1.9764   -0.3936 O.3       1 <0>        -0.4951
      4 O4          3.2866   -0.9569   -1.0464 O.2       1 <0>        -0.2744
      5 N1          2.4737    0.9230    0.0487 N.am      1 <0>        -0.3115
      6 N2          5.8549   -0.0577   -0.6779 N.3       1 <0>        -0.3225
      7 C1          0.3103   -0.0545    0.6820 C.3       1 <0>         0.0991
      8 C2         -1.1454   -0.1902    0.3001 C.ar      1 <0>         0.0274
      9 C3          1.0871    0.7826   -0.3345 C.3       1 <0>         0.0419
     10 C4         -1.7039   -1.4465    0.1269 C.ar      1 <0>         0.1260
     11 C5         -1.8972    0.9617    0.1293 C.ar      1 <0>        -0.0108
     12 C6         -3.2424    0.8541   -0.2241 C.ar      1 <0>         0.1207
     13 C7         -3.0490   -1.5540   -0.2263 C.ar      1 <0>        -0.0161
     14 C8         -3.8183   -0.4038   -0.4019 C.ar      1 <0>        -0.0165
     15 C9          3.4650    0.0346   -0.3423 C.2       1 <0>         0.2268
     16 C10         4.8168    0.4088    0.2301 C.3       1 <0>         0.0707
     17 C11        -1.6104   -3.8230    0.0982 C.3       1 <0>         0.0788
     18 C12        -3.3671    3.2292   -0.2027 C.3       1 <0>         0.0788
     19 H1          0.7899   -1.0345    0.7802 H         1 <0>         0.0660
     20 H2          0.7047    1.8063   -0.4004 H         1 <0>         0.0491
     21 H3          1.0328    0.3317   -1.3321 H         1 <0>         0.0491
     22 H4         -1.4167    1.9186    0.2965 H         1 <0>         0.0659
     23 H5          2.7172    1.7064    0.6479 H         1 <0>         0.1488
     24 H6         -3.5602   -2.4980   -0.3804 H         1 <0>         0.0655
     25 H7         -4.8659   -0.4927   -0.6769 H         1 <0>         0.0655
     26 H8          1.3265    0.6519    2.1936 H         1 <0>         0.2103
     27 H9          4.9265   -0.0642    1.2107 H         1 <0>         0.0518
     28 H10         4.9028    1.4925    0.3545 H         1 <0>         0.0518
     29 H11        -1.9586   -3.9435   -0.9337 H         1 <0>         0.0660
     30 H12        -2.4160   -3.9822    0.8234 H         1 <0>         0.0660
     31 H13        -0.8677   -4.6083    0.2742 H         1 <0>         0.0660
     32 H14        -3.0246    3.3581    0.8297 H         1 <0>         0.0660
     33 H15        -4.1188    4.0041   -0.3864 H         1 <0>         0.0660
     34 H16        -2.5594    3.3936   -0.9244 H         1 <0>         0.0660
     35 H17         5.7264    0.3632   -1.5971 H         1 <0>         0.1186
     36 H18         5.7759   -1.0656   -0.8072 H         1 <0>         0.1186
@<TRIPOS>BOND
     1    1    7 1
     2    1   26 1
     3    2   10 1
     4    2   17 1
     5    3   12 1
     6    3   18 1
     7    4   15 2
     8    5    9 1
     9    5   15 am
    10    5   23 1
    11    6   16 1
    12    6   35 1
    13    6   36 1
    14    7    8 1
    15    7    9 1
    16    7   19 1
    17    8   10 ar
    18    8   11 ar
    19    9   20 1
    20    9   21 1
    21   10   13 ar
    22   11   12 ar
    23   11   22 1
    24   12   14 ar
    25   13   14 ar
    26   13   24 1
    27   14   25 1
    28   15   16 1
    29   16   27 1
    30   16   28 1
    31   17   29 1
    32   17   30 1
    33   17   31 1
    34   18   32 1
    35   18   33 1
    36   18   34 1
