@<TRIPOS>MOLECULE
DB00593
   21    21     0     0     0
SMALL
USER_CHARGES

@<TRIPOS>ATOM
      1 O1         -1.1232   -2.0765   -1.2848 O.2       1 <0>        -0.2748
      2 O2         -3.0214    1.7695    0.3716 O.2       1 <0>        -0.2754
      3 N1         -2.3660   -0.2660   -0.5361 N.am      1 <0>        -0.2559
      4 C1         -0.0893   -0.2730   -0.0061 C.3       1 <0>         0.0525
      5 C2         -0.6969    1.0997    0.3326 C.3       1 <0>         0.0380
      6 C3          1.1185   -0.1461   -0.9321 C.3       1 <0>        -0.0417
      7 C4         -1.2211   -1.0041   -0.7054 C.2       1 <0>         0.2256
      8 C5          0.2818   -1.0405    1.2662 C.3       1 <0>        -0.0508
      9 C6         -2.1711    0.9389    0.0875 C.2       1 <0>         0.2202
     10 C7          2.2701    0.5526   -0.2390 C.3       1 <0>        -0.0643
     11 H1         -0.3396    1.8948   -0.3311 H         1 <0>         0.0368
     12 H2         -0.5258    1.3969    1.3717 H         1 <0>         0.0368
     13 H3          0.8445    0.4097   -1.8379 H         1 <0>         0.0273
     14 H4          1.4513   -1.1346   -1.2729 H         1 <0>         0.0273
     15 H5          0.7778   -1.9884    1.0270 H         1 <0>         0.0240
     16 H6          0.9405   -0.4643    1.9239 H         1 <0>         0.0240
     17 H7         -0.6132   -1.2906    1.8491 H         1 <0>         0.0240
     18 H8         -3.2746   -0.5770   -0.8615 H         1 <0>         0.1575
     19 H9          1.9839    1.5225    0.1780 H         1 <0>         0.0230
     20 H10         2.7003   -0.0581    0.5605 H         1 <0>         0.0230
     21 H11         3.0738    0.7346   -0.9611 H         1 <0>         0.0230
@<TRIPOS>BOND
     1    1    7 2
     2    2    9 2
     3    3    7 am
     4    3    9 am
     5    3   18 1
     6    4    5 1
     7    4    6 1
     8    4    7 1
     9    4    8 1
    10    5    9 1
    11    5   11 1
    12    5   12 1
    13    6   10 1
    14    6   13 1
    15    6   14 1
    16    8   15 1
    17    8   16 1
    18    8   17 1
    19   10   19 1
    20   10   20 1
    21   10   21 1
