@<TRIPOS>MOLECULE
DB00179
   44    45     0     0     0
SMALL
USER_CHARGES

@<TRIPOS>ATOM
      1 O1          5.9482   -0.5711   -1.7816 O.3       1 <0>        -0.5033
      2 O2         -6.3844   -0.6980    0.2195 O.3       1 <0>        -0.5033
      3 O3          6.9970    0.8014    0.3963 O.3       1 <0>        -0.5033
      4 O4         -6.6128    2.0602   -0.0388 O.3       1 <0>        -0.5033
      5 C1          0.7633   -0.7460    0.3633 C.3       1 <0>        -0.0370
      6 C2         -0.7693   -0.5745    0.6144 C.3       1 <0>        -0.0370
      7 C3          1.4094    0.4790   -0.3246 C.3       1 <0>        -0.0247
      8 C4         -1.5954   -0.4394   -0.6886 C.3       1 <0>        -0.0247
      9 C5          1.0415   -2.0311   -0.4350 C.3       1 <0>        -0.0619
     10 C6         -1.3733   -1.7003    1.4659 C.3       1 <0>        -0.0619
     11 C7          2.9066    0.5640   -0.1350 C.ar      1 <0>        -0.0434
     12 C8         -2.9387    0.2259   -0.5136 C.ar      1 <0>        -0.0434
     13 C9          3.7417   -0.0486   -1.0544 C.ar      1 <0>        -0.0133
     14 C10        -4.0496   -0.5511   -0.2257 C.ar      1 <0>        -0.0133
     15 C11         3.4130    1.2517    0.9552 C.ar      1 <0>        -0.0549
     16 C12        -3.0375    1.6023   -0.6449 C.ar      1 <0>        -0.0549
     17 C13         5.1232    0.0290   -0.8787 C.ar      1 <0>         0.1585
     18 C14        -5.2913    0.0638   -0.0648 C.ar      1 <0>         0.1585
     19 C15         4.7946    1.3293    1.1309 C.ar      1 <0>        -0.0163
     20 C16        -4.2789    2.2172   -0.4841 C.ar      1 <0>        -0.0163
     21 C17         5.6497    0.7181    0.2139 C.ar      1 <0>         0.1582
     22 C18        -5.4060    1.4479   -0.1940 C.ar      1 <0>         0.1582
     23 H1          1.2303   -0.8688    1.3506 H         1 <0>         0.0304
     24 H2         -0.8805    0.3523    1.1949 H         1 <0>         0.0304
     25 H3          1.1832    0.4878   -1.3986 H         1 <0>         0.0316
     26 H4          0.9615    1.4001    0.0722 H         1 <0>         0.0316
     27 H5         -1.0387    0.1446   -1.4312 H         1 <0>         0.0316
     28 H6         -1.7355   -1.4222   -1.1585 H         1 <0>         0.0316
     29 H7          2.1136   -2.2458   -0.4732 H         1 <0>         0.0233
     30 H8          0.6786   -1.9540   -1.4650 H         1 <0>         0.0233
     31 H9          0.5731   -2.9047    0.0270 H         1 <0>         0.0233
     32 H10        -1.5039   -2.6269    0.8981 H         1 <0>         0.0233
     33 H11        -0.7304   -1.9183    2.3256 H         1 <0>         0.0233
     34 H12        -2.3493   -1.4117    1.8682 H         1 <0>         0.0233
     35 H13         3.3368   -0.5806   -1.9109 H         1 <0>         0.0658
     36 H14        -3.9597   -1.6301   -0.1318 H         1 <0>         0.0658
     37 H15         2.7549    1.7286    1.6757 H         1 <0>         0.0621
     38 H16        -2.1652    2.2100   -0.8678 H         1 <0>         0.0621
     39 H17         5.1912    1.8688    1.9869 H         1 <0>         0.0655
     40 H18        -4.3615    3.2959   -0.5852 H         1 <0>         0.0655
     41 H19         6.8683   -0.4167   -1.5049 H         1 <0>         0.2923
     42 H20        -6.1155   -1.6312    0.2727 H         1 <0>         0.2923
     43 H21         7.1764    1.3151    1.2025 H         1 <0>         0.2923
     44 H22        -7.2787    1.3783    0.1574 H         1 <0>         0.2923
@<TRIPOS>BOND
     1    1   17 1
     2    1   41 1
     3    2   18 1
     4    2   42 1
     5    3   21 1
     6    3   43 1
     7    4   22 1
     8    4   44 1
     9    5    6 1
    10    5    7 1
    11    5    9 1
    12    5   23 1
    13    6    8 1
    14    6   10 1
    15    6   24 1
    16    7   11 1
    17    7   25 1
    18    7   26 1
    19    8   12 1
    20    8   27 1
    21    8   28 1
    22    9   29 1
    23    9   30 1
    24    9   31 1
    25   10   32 1
    26   10   33 1
    27   10   34 1
    28   11   13 ar
    29   11   15 ar
    30   12   14 ar
    31   12   16 ar
    32   13   17 ar
    33   13   35 1
    34   14   18 ar
    35   14   36 1
    36   15   19 ar
    37   15   37 1
    38   16   20 ar
    39   16   38 1
    40   17   21 ar
    41   18   22 ar
    42   19   21 ar
    43   19   39 1
    44   20   22 ar
    45   20   40 1
