@<TRIPOS>MOLECULE
DB00547
   56    59     0     0     0
SMALL
USER_CHARGES

@<TRIPOS>ATOM
      1 F1          1.4245    0.0920    1.5792 F         1 <0>        -0.2377
      2 O1          0.6318    2.2802   -1.1591 O.3       1 <0>        -0.3886
      3 O2         -5.0511    0.1613   -0.5856 O.2       1 <0>        -0.2946
      4 O3         -5.3651    2.6051    0.6515 O.3       1 <0>        -0.3875
      5 O4          6.2479   -0.0347    2.2949 O.2       1 <0>        -0.2879
      6 C1         -1.5832    0.3071   -0.2119 C.3       1 <0>        -0.0166
      7 C2         -0.7250   -0.9441    0.0593 C.3       1 <0>        -0.0288
      8 C3          0.7093   -0.8204   -0.4729 C.3       1 <0>         0.0002
      9 C4          1.4079    0.3968    0.2269 C.3       1 <0>         0.1526
     10 C5         -2.9151   -0.1717    0.4150 C.3       1 <0>         0.0281
     11 C6         -1.6057   -2.0948   -0.4237 C.3       1 <0>        -0.0461
     12 C7         -0.9291    1.4917    0.5206 C.3       1 <0>        -0.0175
     13 C8         -3.0406   -1.6483   -0.0481 C.3       1 <0>        -0.0335
     14 C9          0.5531    1.6976    0.1329 C.3       1 <0>         0.0909
     15 C10         2.9242    0.5313   -0.1952 C.3       1 <0>         0.0443
     16 C11         1.4868   -2.1261   -0.2272 C.3       1 <0>        -0.0432
     17 C12        -1.7711    0.6262   -1.7179 C.3       1 <0>        -0.0586
     18 C13         2.9519   -2.0101   -0.6302 C.3       1 <0>        -0.0301
     19 C14         3.5914   -0.8272    0.0509 C.2       1 <0>        -0.0532
     20 C15        -4.1024    0.6545    0.0227 C.2       1 <0>         0.1623
     21 C16        -3.6489   -2.5285    1.0396 C.3       1 <0>        -0.0617
     22 C17         3.1349    0.9035   -1.6809 C.3       1 <0>        -0.0493
     23 C18         3.5990    1.6295    0.6146 C.2       1 <0>        -0.0674
     24 C19         4.6539   -1.0025    0.8524 C.2       1 <0>        -0.0148
     25 C20        -4.0618    2.1158    0.4161 C.3       1 <0>         0.1025
     26 C21         4.6557    1.4609    1.4154 C.2       1 <0>        -0.0180
     27 C22         5.2667    0.1291    1.5776 C.2       1 <0>         0.1787
     28 H1         -0.6417   -1.0744    1.1516 H         1 <0>         0.0310
     29 H2          0.6839   -0.6561   -1.5548 H         1 <0>         0.0336
     30 H3         -2.8522   -0.1400    1.5118 H         1 <0>         0.0386
     31 H4         -1.5208   -2.2225   -1.5091 H         1 <0>         0.0271
     32 H5         -1.3260   -3.0456    0.0419 H         1 <0>         0.0271
     33 H6         -0.9799    1.3266    1.6047 H         1 <0>         0.0297
     34 H7         -1.4649    2.4215    0.3117 H         1 <0>         0.0297
     35 H8         -3.6657   -1.7504   -0.9434 H         1 <0>         0.0305
     36 H9          0.9558    2.4335    0.8382 H         1 <0>         0.0625
     37 H10         1.0317   -2.9462   -0.7953 H         1 <0>         0.0272
     38 H11         1.4229   -2.4049    0.8331 H         1 <0>         0.0272
     39 H12        -0.8274    0.6654   -2.2658 H         1 <0>         0.0235
     40 H13        -2.3894   -0.1189   -2.2292 H         1 <0>         0.0235
     41 H14        -2.2576    1.5960   -1.8621 H         1 <0>         0.0235
     42 H15         3.0371   -1.9042   -1.7178 H         1 <0>         0.0310
     43 H16         3.4647   -2.9453   -0.3739 H         1 <0>         0.0310
     44 H17        -3.7281   -3.5653    0.6961 H         1 <0>         0.0233
     45 H18        -3.0373   -2.5216    1.9482 H         1 <0>         0.0233
     46 H19        -4.6537   -2.1828    1.3027 H         1 <0>         0.0233
     47 H20         4.1799    0.7501   -1.9817 H         1 <0>         0.0242
     48 H21         2.5175    0.3053   -2.3575 H         1 <0>         0.0242
     49 H22         2.9144    1.9571   -1.8832 H         1 <0>         0.0242
     50 H23         3.2077    2.6396    0.5160 H         1 <0>         0.0583
     51 H24         0.1315    3.1136   -1.1411 H         1 <0>         0.2099
     52 H25         5.0945   -1.9811    1.0117 H         1 <0>         0.0656
     53 H26        -3.6148    2.7038   -0.3871 H         1 <0>         0.0636
     54 H27        -3.4951    2.2470    1.3411 H         1 <0>         0.0636
     55 H28         5.0944    2.2934    1.9532 H         1 <0>         0.0653
     56 H29        -5.7212    2.1321    1.4230 H         1 <0>         0.2100
@<TRIPOS>BOND
     1    1    9 1
     2    2   14 1
     3    2   51 1
     4    3   20 2
     5    4   25 1
     6    4   56 1
     7    5   27 2
     8    6    7 1
     9    6   10 1
    10    6   12 1
    11    6   17 1
    12    7    8 1
    13    7   11 1
    14    7   28 1
    15    8    9 1
    16    8   16 1
    17    8   29 1
    18    9   14 1
    19    9   15 1
    20   10   13 1
    21   10   20 1
    22   10   30 1
    23   11   13 1
    24   11   31 1
    25   11   32 1
    26   12   14 1
    27   12   33 1
    28   12   34 1
    29   13   21 1
    30   13   35 1
    31   14   36 1
    32   15   19 1
    33   15   22 1
    34   15   23 1
    35   16   18 1
    36   16   37 1
    37   16   38 1
    38   17   39 1
    39   17   40 1
    40   17   41 1
    41   18   19 1
    42   18   42 1
    43   18   43 1
    44   19   24 2
    45   20   25 1
    46   21   44 1
    47   21   45 1
    48   21   46 1
    49   22   47 1
    50   22   48 1
    51   22   49 1
    52   23   26 2
    53   23   50 1
    54   24   27 1
    55   24   52 1
    56   25   53 1
    57   25   54 1
    58   26   27 1
    59   26   55 1
