@<TRIPOS>MOLECULE
DB00777
   48    50     0     0     0
SMALL
USER_CHARGES

@<TRIPOS>ATOM
      1 S1         -2.0123   -3.2468   -0.9376 S.3       1 <0>        -0.0857
      2 O1          4.6321   -2.4306   -0.1812 O.2       1 <0>        -0.2921
      3 N1         -1.1071   -0.5054    0.2153 N.pl3     1 <0>        -0.2968
      4 N2          0.0618    2.8933   -0.8196 N.3       1 <0>        -0.3042
      5 C1         -0.2658    1.4763   -0.9891 C.3       1 <0>         0.0231
      6 C2         -0.7457    0.9114    0.3518 C.3       1 <0>         0.0327
      7 C3         -0.0659   -1.4186   -0.0886 C.ar      1 <0>         0.0486
      8 C4         -2.4567   -0.8617    0.4644 C.ar      1 <0>         0.0479
      9 C5         -1.3245    1.3448   -2.0839 C.3       1 <0>        -0.0480
     10 C6         -0.3506   -2.7024   -0.5945 C.ar      1 <0>         0.0341
     11 C7         -2.9785   -2.0904    0.0128 C.ar      1 <0>         0.0341
     12 C8          1.2928   -1.1040    0.1327 C.ar      1 <0>        -0.0288
     13 C9         -3.3266   -0.0282    1.2009 C.ar      1 <0>        -0.0393
     14 C10         1.0739    3.0610    0.2217 C.3       1 <0>        -0.0127
     15 C11        -1.1403    3.6588   -0.4941 C.3       1 <0>        -0.0127
     16 C12         2.3184   -2.0089   -0.1543 C.ar      1 <0>         0.0192
     17 C13         0.6855   -3.6073   -0.8862 C.ar      1 <0>        -0.0455
     18 C14        -4.3155   -2.4423    0.2694 C.ar      1 <0>        -0.0462
     19 C15         2.0146   -3.2610   -0.6671 C.ar      1 <0>        -0.0501
     20 C16        -4.6532   -0.3852    1.4573 C.ar      1 <0>        -0.0599
     21 C17        -5.1490   -1.5921    0.9885 C.ar      1 <0>        -0.0606
     22 C18         3.7051   -1.6359    0.0772 C.2       1 <0>         0.1630
     23 C19         4.0420   -0.2463    0.6465 C.3       1 <0>         0.0076
     24 C20         5.5318   -0.0166    0.8465 C.3       1 <0>        -0.0582
     25 H1          0.6330    0.9695   -1.3552 H         1 <0>         0.0475
     26 H2         -0.0255    1.0039    1.1705 H         1 <0>         0.0483
     27 H3         -1.5857    1.5109    0.6765 H         1 <0>         0.0483
     28 H4         -2.3365    1.5887   -1.7436 H         1 <0>         0.0245
     29 H5         -1.0851    1.9642   -2.9562 H         1 <0>         0.0245
     30 H6         -1.3614    0.3098   -2.4444 H         1 <0>         0.0245
     31 H7          1.5525   -0.1419    0.5563 H         1 <0>         0.0643
     32 H8         -3.0123    0.8968    1.6722 H         1 <0>         0.0636
     33 H9          1.9227    2.3851    0.0716 H         1 <0>         0.0391
     34 H10         0.6974    2.9461    1.2436 H         1 <0>         0.0391
     35 H11         1.4840    4.0762    0.1564 H         1 <0>         0.0391
     36 H12        -0.8652    4.7221   -0.4713 H         1 <0>         0.0391
     37 H13        -1.5787    3.4575    0.4874 H         1 <0>         0.0391
     38 H14        -1.9199    3.6086   -1.2593 H         1 <0>         0.0391
     39 H15         0.4665   -4.5946   -1.2882 H         1 <0>         0.0629
     40 H16        -4.7223   -3.3861   -0.0882 H         1 <0>         0.0629
     41 H17         2.7894   -3.9849   -0.9033 H         1 <0>         0.0625
     42 H18        -5.2905    0.2758    2.0379 H         1 <0>         0.0618
     43 H19        -6.1783   -1.8749    1.1864 H         1 <0>         0.0618
     44 H20         3.6672    0.5132   -0.0481 H         1 <0>         0.0342
     45 H21         3.5455   -0.1357    1.6167 H         1 <0>         0.0342
     46 H22         6.0728   -0.1051   -0.1012 H         1 <0>         0.0234
     47 H23         5.7127    0.9835    1.2523 H         1 <0>         0.0234
     48 H24         5.9516   -0.7505    1.5424 H         1 <0>         0.0234
@<TRIPOS>BOND
     1    1   10 1
     2    1   11 1
     3    2   22 2
     4    3    6 1
     5    3    7 1
     6    3    8 1
     7    4    5 1
     8    4   14 1
     9    4   15 1
    10    5    6 1
    11    5    9 1
    12    5   25 1
    13    6   26 1
    14    6   27 1
    15    7   10 ar
    16    7   12 ar
    17    8   11 ar
    18    8   13 ar
    19    9   28 1
    20    9   29 1
    21    9   30 1
    22   10   17 ar
    23   11   18 ar
    24   12   16 ar
    25   12   31 1
    26   13   20 ar
    27   13   32 1
    28   14   33 1
    29   14   34 1
    30   14   35 1
    31   15   36 1
    32   15   37 1
    33   15   38 1
    34   16   19 ar
    35   16   22 1
    36   17   19 ar
    37   17   39 1
    38   18   21 ar
    39   18   40 1
    40   19   41 1
    41   20   21 ar
    42   20   42 1
    43   21   43 1
    44   22   23 1
    45   23   24 1
    46   23   44 1
    47   23   45 1
    48   24   46 1
    49   24   47 1
    50   24   48 1
