@<TRIPOS>MOLECULE
DB00727
   20    19     0     0     0
SMALL
USER_CHARGES

@<TRIPOS>ATOM
      1 O1         -0.0098   -1.4471   -0.6693 O.3       1 <0>        -0.2057
      2 O2         -2.4847   -0.3801   -0.0182 O.3       1 <0>        -0.2124
      3 O3          1.4709    0.9241   -0.5729 O.3       1 <0>        -0.2124
      4 O4          1.2596   -2.6736    0.6566 O.3       1 <0>        -0.5338
      5 O5          1.6095   -2.7841   -1.5428 O.2       1 <0>         0.0934
      6 O6         -3.3856    1.6180   -0.3191 O.3       1 <0>        -0.5338
      7 O7          3.2482    1.5409    0.5909 O.3       1 <0>        -0.5338
      8 O8         -4.7061   -0.1733   -0.4577 O.2       1 <0>         0.0934
      9 O9          3.0158    2.3209   -1.4850 O.2       1 <0>         0.0934
     10 N1          1.0467   -2.3834   -0.5213 N.pl3     1 <0>         0.2848
     11 N2         -3.6338    0.4120   -0.2896 N.pl3     1 <0>         0.2844
     12 N3          2.6820    1.6645   -0.4959 N.pl3     1 <0>         0.2844
     13 C1         -0.1378   -0.5599    0.4441 C.3       1 <0>         0.2577
     14 C2         -1.2979    0.3855    0.1608 C.3       1 <0>         0.2138
     15 C3          1.1719    0.2009    0.6167 C.3       1 <0>         0.2138
     16 H1         -0.3896   -1.1331    1.3461 H         1 <0>         0.0882
     17 H2         -1.0964    0.9442   -0.7620 H         1 <0>         0.0812
     18 H3         -1.4133    1.0779    1.0041 H         1 <0>         0.0812
     19 H4          2.0068   -0.4609    0.8659 H         1 <0>         0.0812
     20 H5          1.0436    0.9066    1.4488 H         1 <0>         0.0812
@<TRIPOS>BOND
     1    1   10 1
     2    1   13 1
     3    2   11 1
     4    2   14 1
     5    3   12 1
     6    3   15 1
     7    4   10 1
     8    5   10 2
     9    6   11 1
    10    7   12 1
    11    8   11 2
    12    9   12 2
    13   13   14 1
    14   13   15 1
    15   13   16 1
    16   14   17 1
    17   14   18 1
    18   15   19 1
    19   15   20 1
