@<TRIPOS>MOLECULE
DB00408
   41    44     0     0     0
SMALL
USER_CHARGES

@<TRIPOS>ATOM
      1 Cl1         0.8171   -4.1168   -2.0077 Cl        1 <0>        -0.0835
      2 O1         -2.7480   -0.8148    1.2999 O.3       1 <0>        -0.4508
      3 N1          1.0339    0.6131    0.5482 N.pl3     1 <0>        -0.2175
      4 N2          3.8742    0.7549    0.3604 N.3       1 <0>        -0.2982
      5 N3         -1.1206    1.4083    0.3981 N.2       1 <0>        -0.0376
      6 C1          1.8618   -0.3372    1.2900 C.3       1 <0>         0.0933
      7 C2          1.6811    1.8878    0.2412 C.3       1 <0>         0.0933
      8 C3          3.2020   -0.5339    0.5789 C.3       1 <0>         0.0348
      9 C4          3.0255    1.6432   -0.4469 C.3       1 <0>         0.0348
     10 C5         -0.2944    0.3982    0.3211 C.2       1 <0>         0.3250
     11 C6          5.1706    0.5556   -0.2860 C.3       1 <0>        -0.0125
     12 C7         -0.7044   -1.0014    0.0032 C.ar      1 <0>         0.1091
     13 C8         -1.8852   -1.5429    0.5180 C.ar      1 <0>         0.1436
     14 C9         -2.5018    1.3117    0.1737 C.ar      1 <0>         0.2183
     15 C10         0.1295   -1.8053   -0.7844 C.ar      1 <0>        -0.0249
     16 C11        -3.2959    0.2588    0.6399 C.ar      1 <0>         0.1789
     17 C12        -2.2150   -2.8807    0.2836 C.ar      1 <0>        -0.0171
     18 C13        -0.2115   -3.1358   -1.0368 C.ar      1 <0>         0.0420
     19 C14        -1.3789   -3.6746   -0.4990 C.ar      1 <0>        -0.0399
     20 C15        -3.1368    2.3763   -0.4799 C.ar      1 <0>        -0.0071
     21 C16        -4.6847    0.2685    0.4778 C.ar      1 <0>        -0.0150
     22 C17        -4.5215    2.3834   -0.6649 C.ar      1 <0>        -0.0574
     23 C18        -5.2955    1.3309   -0.1825 C.ar      1 <0>        -0.0580
     24 H1          1.3868   -1.3077    1.4613 H         1 <0>         0.0739
     25 H2          2.0400    0.0765    2.2918 H         1 <0>         0.0739
     26 H3          1.8217    2.4557    1.1690 H         1 <0>         0.0739
     27 H4          1.0604    2.4994   -0.4244 H         1 <0>         0.0739
     28 H5          3.8306   -1.1739    1.2103 H         1 <0>         0.0463
     29 H6          3.0602   -1.0599   -0.3725 H         1 <0>         0.0463
     30 H7          2.8549    1.2132   -1.4432 H         1 <0>         0.0463
     31 H8          3.5225    2.6106   -0.5871 H         1 <0>         0.0463
     32 H9          5.8174   -0.0734    0.3357 H         1 <0>         0.0391
     33 H10         5.6891    1.5128   -0.4099 H         1 <0>         0.0391
     34 H11         5.0754    0.0848   -1.2712 H         1 <0>         0.0391
     35 H12         1.0258   -1.3935   -1.2389 H         1 <0>         0.0642
     36 H13        -3.1250   -3.3049    0.6992 H         1 <0>         0.0655
     37 H14        -1.6506   -4.7109   -0.6823 H         1 <0>         0.0633
     38 H15        -2.5525    3.2184   -0.8444 H         1 <0>         0.0662
     39 H16        -5.2898   -0.5511    0.8553 H         1 <0>         0.0656
     40 H17        -4.9954    3.2164   -1.1758 H         1 <0>         0.0619
     41 H18        -6.3728    1.3404   -0.3188 H         1 <0>         0.0619
@<TRIPOS>BOND
     1    1   18 1
     2    2   13 1
     3    2   16 1
     4    3    6 1
     5    3    7 1
     6    3   10 1
     7    4    8 1
     8    4    9 1
     9    4   11 1
    10    5   10 2
    11    5   14 1
    12    6    8 1
    13    6   24 1
    14    6   25 1
    15    7    9 1
    16    7   26 1
    17    7   27 1
    18    8   28 1
    19    8   29 1
    20    9   30 1
    21    9   31 1
    22   10   12 1
    23   11   32 1
    24   11   33 1
    25   11   34 1
    26   12   13 ar
    27   12   15 ar
    28   13   17 ar
    29   14   16 ar
    30   14   20 ar
    31   15   18 ar
    32   15   35 1
    33   16   21 ar
    34   17   19 ar
    35   17   36 1
    36   18   19 ar
    37   19   37 1
    38   20   22 ar
    39   20   38 1
    40   21   23 ar
    41   21   39 1
    42   22   23 ar
    43   22   40 1
    44   23   41 1
