@<TRIPOS>MOLECULE
DB00114
   26    26     0     0     0
SMALL
USER_CHARGES

@<TRIPOS>ATOM
      1 P1         -3.7154    0.2418   -0.7728 P.3       1 <0>         0.4727
      2 O1         -2.1008    0.3066   -0.7434 O.3       1 <0>        -0.2820
      3 O2          2.9715   -1.7701   -0.1921 O.3       1 <0>        -0.5043
      4 O3         -4.1670    1.4281    0.2294 O.3       1 <0>        -0.3026
      5 O4         -4.0337   -1.0999    0.0718 O.3       1 <0>        -0.3026
      6 O5          0.7860   -3.1307    0.5712 O.2       1 <0>        -0.2956
      7 O6         -4.3292    0.2898   -2.1415 O.2       1 <0>        -0.2275
      8 N1          1.9929    1.7301    0.1103 N.ar      1 <0>        -0.2562
      9 C1          0.0278    0.3372    0.3172 C.ar      1 <0>         0.0105
     10 C2          0.8089   -0.8017    0.1551 C.ar      1 <0>         0.0641
     11 C3         -1.4467    0.2660    0.5195 C.3       1 <0>         0.0863
     12 C4          2.1813   -0.6761   -0.0295 C.ar      1 <0>         0.1483
     13 C5          2.7196    0.6005   -0.0439 C.ar      1 <0>         0.0801
     14 C6          0.6625    1.5686    0.2873 C.ar      1 <0>         0.0341
     15 C7          4.1877    0.7925   -0.2400 C.3       1 <0>        -0.0188
     16 C8          0.1942   -2.1242    0.1785 C.2       1 <0>         0.1541
     17 H1         -1.7444   -0.6223    1.0852 H         1 <0>         0.0616
     18 H2         -1.7751    1.1259    1.1156 H         1 <0>         0.0616
     19 H3          0.1084    2.4948    0.4057 H         1 <0>         0.0833
     20 H4          4.5060    0.3937   -1.2086 H         1 <0>         0.0294
     21 H5          4.4444    1.8576   -0.2253 H         1 <0>         0.0294
     22 H6          4.7536    0.3096    0.5632 H         1 <0>         0.0294
     23 H7         -0.8518   -2.2053   -0.1582 H         1 <0>         0.1083
     24 H8          3.9013   -1.5209   -0.3087 H         1 <0>         0.2922
     25 H9         -5.1223    1.6272    0.3289 H         1 <0>         0.2220
     26 H10        -4.9598   -1.4186    0.1253 H         1 <0>         0.2220
@<TRIPOS>BOND
     1    1    2 1
     2    1    4 1
     3    1    5 1
     4    1    7 2
     5    2   11 1
     6    3   12 1
     7    3   24 1
     8    4   25 1
     9    5   26 1
    10    6   16 2
    11    8   13 ar
    12    8   14 ar
    13    9   10 ar
    14    9   11 1
    15    9   14 ar
    16   10   12 ar
    17   10   16 1
    18   11   17 1
    19   11   18 1
    20   12   13 ar
    21   13   15 1
    22   14   19 1
    23   15   20 1
    24   15   21 1
    25   15   22 1
    26   16   23 1
