@<TRIPOS>MOLECULE
DB00765
   27    27     0     0     0
SMALL
USER_CHARGES

@<TRIPOS>ATOM
      1 O1          0.9500   -1.5268    1.5914 O.3       1 <0>        -0.4793
      2 O2          2.1109   -2.5240   -0.0715 O.2       1 <0>        -0.2489
      3 O3         -4.5294    0.2053    0.5626 O.3       1 <0>        -0.5068
      4 N1          3.2198   -0.0667   -0.7477 N.3       1 <0>        -0.3158
      5 C1          1.8889   -0.0937   -0.1224 C.3       1 <0>         0.1156
      6 C2          0.8317    0.2659   -1.1942 C.3       1 <0>         0.0006
      7 C3         -0.6055    0.2495   -0.7229 C.ar      1 <0>        -0.0449
      8 C4          1.9243    0.9367    1.0172 C.3       1 <0>        -0.0362
      9 C5          1.6805   -1.4998    0.4469 C.2       1 <0>         0.3249
     10 C6         -1.3351   -0.9229   -0.8182 C.ar      1 <0>        -0.0551
     11 C7         -1.1607    1.4080   -0.2069 C.ar      1 <0>        -0.0551
     12 C8         -2.6608   -0.9375   -0.3842 C.ar      1 <0>        -0.0199
     13 C9         -2.4863    1.3933    0.2272 C.ar      1 <0>        -0.0199
     14 C10        -3.2363    0.2207    0.1384 C.ar      1 <0>         0.1169
     15 H1          1.0494    1.2558   -1.6206 H         1 <0>         0.0336
     16 H2          0.9182   -0.4308   -2.0411 H         1 <0>         0.0336
     17 H3          2.7103    0.6998    1.7458 H         1 <0>         0.0253
     18 H4          0.9854    0.9742    1.5790 H         1 <0>         0.0253
     19 H5          2.1188    1.9466    0.6368 H         1 <0>         0.0253
     20 H6          3.9406   -0.2234   -0.0439 H         1 <0>         0.1192
     21 H7          3.4019    0.8583   -1.1361 H         1 <0>         0.1192
     22 H8         -0.8975   -1.8299   -1.2250 H         1 <0>         0.0621
     23 H9         -0.5869    2.3273   -0.1369 H         1 <0>         0.0621
     24 H10        -3.2342   -1.8576   -0.4588 H         1 <0>         0.0654
     25 H11        -2.9292    2.2988    0.6328 H         1 <0>         0.0654
     26 H12         0.8263   -2.4410    1.9247 H         1 <0>         0.2951
     27 H13        -4.8948   -0.6860    0.4277 H         1 <0>         0.2921
@<TRIPOS>BOND
     1    1    9 1
     2    1   26 1
     3    2    9 2
     4    3   14 1
     5    3   27 1
     6    4    5 1
     7    4   20 1
     8    4   21 1
     9    5    6 1
    10    5    8 1
    11    5    9 1
    12    6    7 1
    13    6   15 1
    14    6   16 1
    15    7   10 ar
    16    7   11 ar
    17    8   17 1
    18    8   18 1
    19    8   19 1
    20   10   12 ar
    21   10   22 1
    22   11   13 ar
    23   11   23 1
    24   12   14 ar
    25   12   24 1
    26   13   14 ar
    27   13   25 1
