@<TRIPOS>MOLECULE
DB00964
   25    26     0     0     0
SMALL
USER_CHARGES

@<TRIPOS>ATOM
      1 Cl1        -0.5649   -2.7237   -0.6858 Cl        1 <0>        -0.0801
      2 Cl2        -0.5752    2.7351   -0.6645 Cl        1 <0>        -0.0801
      3 N1          2.9860    0.0065   -0.8773 N.pl3     1 <0>        -0.2350
      4 N2          0.6672    0.0091   -1.0537 N.pl3     1 <0>        -0.2037
      5 N3          1.7956   -0.0047    1.0549 N.2       1 <0>        -0.1140
      6 N4         -4.7028   -0.0062    0.5918 N.pl3     1 <0>        -0.3579
      7 C1          4.0433   -0.0030    0.0871 C.3       1 <0>         0.0920
      8 C2          3.2496   -0.0069    1.3998 C.3       1 <0>         0.1328
      9 C3          1.7728    0.0039   -0.2565 C.2       1 <0>         0.3695
     10 C4         -0.6702    0.0050   -0.6425 C.ar      1 <0>         0.1284
     11 C5         -1.3520   -1.2049   -0.4401 C.ar      1 <0>         0.0805
     12 C6         -1.3549    1.2111   -0.4275 C.ar      1 <0>         0.0805
     13 C7         -3.3546   -0.0027    0.1774 C.ar      1 <0>         0.0275
     14 C8         -2.6861   -1.2086   -0.0327 C.ar      1 <0>        -0.0194
     15 C9         -2.6892    1.2073   -0.0202 C.ar      1 <0>        -0.0194
     16 H1          4.6730    0.8874    0.0008 H         1 <0>         0.0665
     17 H2          4.6651   -0.8978   -0.0089 H         1 <0>         0.0665
     18 H3          3.4813   -0.8962    1.9954 H         1 <0>         0.0723
     19 H4          3.4821    0.8783    2.0011 H         1 <0>         0.0723
     20 H5          3.1383    0.0110   -1.8781 H         1 <0>         0.2445
     21 H6          0.7946    0.0189   -2.0611 H         1 <0>         0.2513
     22 H7         -3.2086   -2.1501    0.1232 H         1 <0>         0.0652
     23 H8         -3.2145    2.1458    0.1444 H         1 <0>         0.0652
     24 H9         -5.1889    0.8680    0.7410 H         1 <0>         0.1423
     25 H10        -5.1871   -0.8828    0.7320 H         1 <0>         0.1423
@<TRIPOS>BOND
     1    1   11 1
     2    2   12 1
     3    3    7 1
     4    3    9 1
     5    3   20 1
     6    4    9 1
     7    4   10 1
     8    4   21 1
     9    5    8 1
    10    5    9 2
    11    6   13 1
    12    6   24 1
    13    6   25 1
    14    7    8 1
    15    7   16 1
    16    7   17 1
    17    8   18 1
    18    8   19 1
    19   10   11 ar
    20   10   12 ar
    21   11   14 ar
    22   12   15 ar
    23   13   14 ar
    24   13   15 ar
    25   14   22 1
    26   15   23 1
