@<TRIPOS>MOLECULE
DB00812
   43    45     0     0     0
SMALL
USER_CHARGES

@<TRIPOS>ATOM
      1 O1         -0.3762   -3.0627   -0.5245 O.2       1 <0>        -0.2729
      2 O2         -1.3661    1.0958   -2.5199 O.2       1 <0>        -0.2729
      3 N1          0.6954   -0.9361   -0.5315 N.am      1 <0>        -0.1804
      4 N2          0.3384    0.3358   -1.0415 N.am      1 <0>        -0.1804
      5 C1         -1.2597   -1.1951   -1.7699 C.3       1 <0>         0.1156
      6 C2         -2.6816   -1.2665   -1.2429 C.3       1 <0>        -0.0333
      7 C3         -0.2961   -1.8825   -0.8313 C.2       1 <0>         0.2486
      8 C4         -0.7815    0.2333   -1.8809 C.2       1 <0>         0.2486
      9 C5         -2.8153   -0.5582    0.1049 C.3       1 <0>        -0.0522
     10 C6         -4.2553   -0.6030    0.6159 C.3       1 <0>        -0.0559
     11 C7          2.0214   -1.3080   -0.1545 C.ar      1 <0>         0.0566
     12 C8          0.7462    1.5763   -0.4632 C.ar      1 <0>         0.0566
     13 C9         -4.3995    0.1297    1.9402 C.3       1 <0>        -0.0653
     14 C10         2.2469   -2.5091    0.5217 C.ar      1 <0>        -0.0386
     15 C11         0.4979    2.7771   -1.1322 C.ar      1 <0>        -0.0386
     16 C12         3.0978   -0.4725   -0.4611 C.ar      1 <0>        -0.0386
     17 C13         1.3946    1.5940    0.7740 C.ar      1 <0>        -0.0386
     18 C14         3.5422   -2.8727    0.8898 C.ar      1 <0>        -0.0599
     19 C15         0.8958    3.9888   -0.5674 C.ar      1 <0>        -0.0599
     20 C16         4.3930   -0.8363   -0.0931 C.ar      1 <0>        -0.0599
     21 C17         1.7925    2.8059    1.3387 C.ar      1 <0>        -0.0599
     22 C18         4.6152   -2.0364    0.5824 C.ar      1 <0>        -0.0616
     23 C19         1.5430    4.0032    0.6680 C.ar      1 <0>        -0.0616
     24 H1         -1.1760   -1.6643   -2.7563 H         1 <0>         0.0491
     25 H2         -2.9900   -2.3139   -1.1380 H         1 <0>         0.0277
     26 H3         -3.3639   -0.8019   -1.9656 H         1 <0>         0.0277
     27 H4         -2.1622   -1.0250    0.8515 H         1 <0>         0.0266
     28 H5         -2.5139    0.4923    0.0235 H         1 <0>         0.0266
     29 H6         -4.5727   -1.6445    0.7432 H         1 <0>         0.0263
     30 H7         -4.9267   -0.1463   -0.1206 H         1 <0>         0.0263
     31 H8         -4.1224    1.1837    1.8380 H         1 <0>         0.0230
     32 H9         -3.7631   -0.3203    2.7088 H         1 <0>         0.0230
     33 H10        -5.4363    0.0835    2.2878 H         1 <0>         0.0230
     34 H11         1.4470   -3.1724    0.8290 H         1 <0>         0.0637
     35 H12         0.0454    2.8227   -2.1157 H         1 <0>         0.0637
     36 H13         2.9944    0.4296   -1.0547 H         1 <0>         0.0637
     37 H14         1.5387    0.7053    1.3789 H         1 <0>         0.0637
     38 H15         3.7149   -3.8020    1.4249 H         1 <0>         0.0618
     39 H16         0.7115    4.9208   -1.0939 H         1 <0>         0.0618
     40 H17         5.2312   -0.1943   -0.3478 H         1 <0>         0.0618
     41 H18         2.2799    2.8195    2.3093 H         1 <0>         0.0618
     42 H19         5.6240   -2.3204    0.8674 H         1 <0>         0.0618
     43 H20         1.8513    4.9469    1.1086 H         1 <0>         0.0618
@<TRIPOS>BOND
     1    1    7 2
     2    2    8 2
     3    3    4 1
     4    3    7 am
     5    3   11 1
     6    4    8 am
     7    4   12 1
     8    5    6 1
     9    5    7 1
    10    5    8 1
    11    5   24 1
    12    6    9 1
    13    6   25 1
    14    6   26 1
    15    9   10 1
    16    9   27 1
    17    9   28 1
    18   10   13 1
    19   10   29 1
    20   10   30 1
    21   11   14 ar
    22   11   16 ar
    23   12   15 ar
    24   12   17 ar
    25   13   31 1
    26   13   32 1
    27   13   33 1
    28   14   18 ar
    29   14   34 1
    30   15   19 ar
    31   15   35 1
    32   16   20 ar
    33   16   36 1
    34   17   21 ar
    35   17   37 1
    36   18   22 ar
    37   18   38 1
    38   19   23 ar
    39   19   39 1
    40   20   22 ar
    41   20   40 1
    42   21   23 ar
    43   21   41 1
    44   22   42 1
    45   23   43 1
