@<TRIPOS>MOLECULE
DB00496
   62    66     0     0     0
SMALL
USER_CHARGES

@<TRIPOS>ATOM
      1 O1          2.8146   -0.4746   -2.7382 O.2       1 <0>        -0.2747
      2 O2         -7.9875   -0.2529   -0.0904 O.3       1 <0>        -0.4914
      3 N1         -0.3878   -1.7441    0.3827 N.3       1 <0>        -0.3017
      4 N2          1.3910    1.1875   -2.0964 N.am      1 <0>        -0.3283
      5 C1          1.7691   -0.9170    0.2891 C.3       1 <0>        -0.0050
      6 C2          2.7338    0.0844   -0.3239 C.3       1 <0>         0.1004
      7 C3          1.7738   -2.2776   -0.4118 C.3       1 <0>        -0.0346
      8 C4          0.3134   -0.4710    0.2138 C.3       1 <0>         0.0033
      9 C5          0.3050   -2.6873   -0.4975 C.3       1 <0>        -0.0008
     10 C6         -1.8082   -1.6425    0.0832 C.3       1 <0>         0.0029
     11 C7          4.2290   -0.3866   -0.2741 C.ar      1 <0>        -0.0278
     12 C8          2.6220    1.4542    0.4224 C.ar      1 <0>        -0.0278
     13 C9          2.3463    0.2247   -1.8391 C.2       1 <0>         0.2257
     14 C10        -2.5051   -0.6861    1.0516 C.3       1 <0>        -0.0149
     15 C11         4.6026   -1.1551    0.7815 C.ar      1 <0>        -0.0572
     16 C12         2.7951    2.5837   -0.3153 C.ar      1 <0>        -0.0572
     17 C13         5.0383    0.0086   -1.2905 C.ar      1 <0>        -0.0572
     18 C14         2.3590    1.4197    1.7564 C.ar      1 <0>        -0.0572
     19 C15        -3.9725   -0.5894    0.7681 C.ar      1 <0>        -0.0457
     20 C16         5.9323   -1.5742    0.8258 C.ar      1 <0>        -0.0615
     21 C17         2.6953    3.8057    0.3501 C.ar      1 <0>        -0.0615
     22 C18         6.3680   -0.4106   -1.2462 C.ar      1 <0>        -0.0615
     23 C19         2.2590    2.6416    2.4216 C.ar      1 <0>        -0.0615
     24 C20        -4.4437    0.3772   -0.1243 C.ar      1 <0>        -0.0518
     25 C21        -4.8609   -1.4786    1.3960 C.ar      1 <0>        -0.0551
     26 C22         6.8148   -1.2021   -0.1880 C.ar      1 <0>        -0.0617
     27 C23         2.4271    3.8346    1.7184 C.ar      1 <0>        -0.0617
     28 C24        -5.8049    0.4402   -0.3588 C.ar      1 <0>        -0.0023
     29 C25        -6.6762   -0.4394    0.2664 C.ar      1 <0>         0.1238
     30 C26        -6.5642    1.3068   -1.2859 C.3       1 <0>         0.0101
     31 C27        -6.2319   -1.4110    1.1419 C.ar      1 <0>        -0.0194
     32 C28        -7.9783    1.0207   -0.7784 C.3       1 <0>         0.0937
     33 H1          1.9740   -1.1400    1.3423 H         1 <0>         0.0330
     34 H2          2.2307   -2.3143   -1.4013 H         1 <0>         0.0281
     35 H3          2.3211   -3.0029    0.2039 H         1 <0>         0.0281
     36 H4          0.0691    0.2280    1.0172 H         1 <0>         0.0430
     37 H5          0.0027   -0.0412   -0.7355 H         1 <0>         0.0430
     38 H6          0.1548   -3.7234   -0.1780 H         1 <0>         0.0427
     39 H7         -0.0331   -2.5935   -1.5376 H         1 <0>         0.0427
     40 H8         -1.9752   -1.3182   -0.9531 H         1 <0>         0.0430
     41 H9         -2.2647   -2.6367    0.1763 H         1 <0>         0.0430
     42 H10        -2.3509   -1.0145    2.0881 H         1 <0>         0.0326
     43 H11        -2.0863    0.3257    0.9947 H         1 <0>         0.0326
     44 H12         3.9615   -1.4427    1.6029 H         1 <0>         0.0621
     45 H13         3.1081    2.6150   -1.3522 H         1 <0>         0.0621
     46 H14         4.7590    0.6829   -2.0907 H         1 <0>         0.0621
     47 H15         2.2626    0.5273    2.3583 H         1 <0>         0.0621
     48 H16         0.8749    1.7026   -1.3919 H         1 <0>         0.1450
     49 H17         1.0883    1.3498   -3.0516 H         1 <0>         0.1450
     50 H18         6.2827   -2.1841    1.6534 H         1 <0>         0.0618
     51 H19         2.8505    4.7341   -0.1917 H         1 <0>         0.0618
     52 H20         7.0604   -0.1064   -2.0259 H         1 <0>         0.0618
     53 H21         2.0612    2.6649    3.4895 H         1 <0>         0.0618
     54 H22        -3.7649    1.0569   -0.6294 H         1 <0>         0.0624
     55 H23        -4.4875   -2.2334    2.0838 H         1 <0>         0.0621
     56 H24         7.8515   -1.5236   -0.1506 H         1 <0>         0.0618
     57 H25         2.3572    4.7857    2.2382 H         1 <0>         0.0618
     58 H26        -6.3110    2.3673   -1.2102 H         1 <0>         0.0347
     59 H27        -6.4376    0.9619   -2.3171 H         1 <0>         0.0347
     60 H28        -6.9198   -2.0986    1.6209 H         1 <0>         0.0654
     61 H29        -8.7029    0.9940   -1.5989 H         1 <0>         0.0700
     62 H30        -8.3045    1.7877   -0.0642 H         1 <0>         0.0700
@<TRIPOS>BOND
     1    1   13 2
     2    2   29 1
     3    2   32 1
     4    3    8 1
     5    3    9 1
     6    3   10 1
     7    4   13 am
     8    4   48 1
     9    4   49 1
    10    5    6 1
    11    5    7 1
    12    5    8 1
    13    5   33 1
    14    6   11 1
    15    6   12 1
    16    6   13 1
    17    7    9 1
    18    7   34 1
    19    7   35 1
    20    8   36 1
    21    8   37 1
    22    9   38 1
    23    9   39 1
    24   10   14 1
    25   10   40 1
    26   10   41 1
    27   11   15 ar
    28   11   17 ar
    29   12   16 ar
    30   12   18 ar
    31   14   19 1
    32   14   42 1
    33   14   43 1
    34   15   20 ar
    35   15   44 1
    36   16   21 ar
    37   16   45 1
    38   17   22 ar
    39   17   46 1
    40   18   23 ar
    41   18   47 1
    42   19   24 ar
    43   19   25 ar
    44   20   26 ar
    45   20   50 1
    46   21   27 ar
    47   21   51 1
    48   22   26 ar
    49   22   52 1
    50   23   27 ar
    51   23   53 1
    52   24   28 ar
    53   24   54 1
    54   25   31 ar
    55   25   55 1
    56   26   56 1
    57   27   57 1
    58   28   29 ar
    59   28   30 1
    60   29   31 ar
    61   30   32 1
    62   30   58 1
    63   30   59 1
    64   31   60 1
    65   32   61 1
    66   32   62 1
