@<TRIPOS>MOLECULE
DB00756
   27    28     0     0     0
SMALL
USER_CHARGES

@<TRIPOS>ATOM
      1 Cl1         0.4413   -2.6829   -0.9719 Cl        1 <0>        -0.0816
      2 Cl2        -2.4885   -2.5650    1.3393 Cl        1 <0>        -0.0816
      3 Cl3         4.3452    1.9323    0.6193 Cl        1 <0>        -0.0797
      4 Cl4        -2.3426    2.9245   -1.6471 Cl        1 <0>        -0.0797
      5 Cl5         3.2001   -2.2282   -2.5504 Cl        1 <0>        -0.0820
      6 Cl6        -5.0452   -1.4904   -0.2787 Cl        1 <0>        -0.0820
      7 O1          1.7307    1.2990    1.9237 O.3       1 <0>        -0.5050
      8 O2         -0.1085    1.7042   -0.0796 O.3       1 <0>        -0.5050
      9 C1         -0.0781   -0.7358    1.2859 C.3       1 <0>         0.0075
     10 C2          1.1987   -0.5582    0.5230 C.ar      1 <0>         0.0196
     11 C3         -1.3053   -0.2668    0.5357 C.ar      1 <0>         0.0196
     12 C4          2.0618    0.4753    0.8867 C.ar      1 <0>         0.1400
     13 C5         -1.2491    0.9553   -0.1191 C.ar      1 <0>         0.1400
     14 C6          1.5304   -1.4042   -0.5351 C.ar      1 <0>         0.0663
     15 C7         -2.4550   -1.0423    0.5070 C.ar      1 <0>         0.0663
     16 C8          3.2571    0.6627    0.1923 C.ar      1 <0>         0.0840
     17 C9         -2.3670    1.4112   -0.8178 C.ar      1 <0>         0.0840
     18 C10         2.7256   -1.2168   -1.2294 C.ar      1 <0>         0.0611
     19 C11        -3.5729   -0.5864   -0.1916 C.ar      1 <0>         0.0611
     20 C12         3.5890   -0.1833   -0.8657 C.ar      1 <0>        -0.0200
     21 C13        -3.5288    0.6404   -0.8541 C.ar      1 <0>        -0.0200
     22 H1         -0.1123   -1.7902    1.5764 H         1 <0>         0.0365
     23 H2         -0.0728   -0.2325    2.2604 H         1 <0>         0.0365
     24 H3          4.5218   -0.0354   -1.4060 H         1 <0>         0.0648
     25 H4         -4.3997    0.9978   -1.3999 H         1 <0>         0.0648
     26 H5          0.7808    1.4978    1.8888 H         1 <0>         0.2922
     27 H6         -0.2569    2.5175   -0.5922 H         1 <0>         0.2922
@<TRIPOS>BOND
     1    1   14 1
     2    2   15 1
     3    3   16 1
     4    4   17 1
     5    5   18 1
     6    6   19 1
     7    7   12 1
     8    7   26 1
     9    8   13 1
    10    8   27 1
    11    9   10 1
    12    9   11 1
    13    9   22 1
    14    9   23 1
    15   10   12 ar
    16   10   14 ar
    17   11   13 ar
    18   11   15 ar
    19   12   16 ar
    20   13   17 ar
    21   14   18 ar
    22   15   19 ar
    23   16   20 ar
    24   17   21 ar
    25   18   20 ar
    26   19   21 ar
    27   20   24 1
    28   21   25 1
