@<TRIPOS>MOLECULE
DB00406
   58    60     0     0     0
SMALL
USER_CHARGES

@<TRIPOS>ATOM
      1 N1          4.9853   -2.7070   -0.0435 N.pl3     1 <0>        -0.3360
      2 N2         -4.9749   -2.7236    0.0445 N.pl3     1 <0>        -0.3360
      3 N3         -0.0109    5.4178    0.0003 N.pl3     1 <0>        -0.2338
      4 C1          0.0007   -0.0376   -0.0012 C.2       1 <0>        -0.0036
      5 C2          1.3112   -0.7396   -0.0125 C.ar      1 <0>        -0.0166
      6 C3         -1.3071   -0.7438    0.0110 C.ar      1 <0>        -0.0166
      7 C4         -0.0022    1.3058   -0.0013 C.2       1 <0>        -0.0163
      8 C5          1.8868   -1.0546   -1.2253 C.ar      1 <0>        -0.0522
      9 C6         -1.8818   -1.0593    1.2243 C.ar      1 <0>        -0.0522
     10 C7          1.9082   -1.0526    1.1905 C.ar      1 <0>        -0.0522
     11 C8         -1.9033   -1.0605   -1.1915 C.ar      1 <0>        -0.0522
     12 C9          1.2540    2.0401   -0.0119 C.2       1 <0>        -0.0478
     13 C10        -1.2614    2.0348    0.0095 C.2       1 <0>        -0.0478
     14 C11         3.7420   -2.0414   -0.0331 C.ar      1 <0>         0.0292
     15 C12        -3.7337   -2.0538    0.0333 C.ar      1 <0>         0.0292
     16 C13        -0.0081    4.1338    0.0002 C.2       1 <0>         0.2021
     17 C14         3.1164   -1.7131   -1.2357 C.ar      1 <0>        -0.0401
     18 C15        -3.1092   -1.7219    1.2356 C.ar      1 <0>        -0.0401
     19 C16         3.1379   -1.7112    1.1801 C.ar      1 <0>        -0.0401
     20 C17        -3.1308   -1.7230   -1.1803 C.ar      1 <0>        -0.0401
     21 C18         1.2735    3.3800   -0.0110 C.2       1 <0>         0.0098
     22 C19        -1.2865    3.3747    0.0105 C.2       1 <0>         0.0098
     23 C20         5.9425   -2.4909    1.0234 C.3       1 <0>         0.0004
     24 C21         5.3279   -3.6051   -1.1282 C.3       1 <0>         0.0004
     25 C22        -5.9327   -2.5120   -1.0225 C.3       1 <0>         0.0004
     26 C23        -5.3144   -3.6216    1.1304 C.3       1 <0>         0.0004
     27 C24        -1.2790    6.1917    0.0103 C.3       1 <0>         0.1352
     28 C25         1.2538    6.1971   -0.0100 C.3       1 <0>         0.1352
     29 H1          1.4098   -0.8012   -2.1680 H         1 <0>         0.0624
     30 H2         -1.4058   -0.8033    2.1666 H         1 <0>         0.0624
     31 H3          1.4457   -0.8024    2.1411 H         1 <0>         0.0624
     32 H4         -1.4416   -0.8099   -2.1425 H         1 <0>         0.0624
     33 H5          2.2179    1.5455   -0.0207 H         1 <0>         0.0626
     34 H6         -2.2236    1.5364    0.0172 H         1 <0>         0.0626
     35 H7          3.5654   -1.9448   -2.1975 H         1 <0>         0.0636
     36 H8         -3.5575   -1.9539    2.1975 H         1 <0>         0.0636
     37 H9          3.5927   -1.9629    2.1340 H         1 <0>         0.0636
     38 H10        -3.5848   -1.9774   -2.1338 H         1 <0>         0.0636
     39 H11         2.2315    3.8853   -0.0189 H         1 <0>         0.0683
     40 H12        -2.2466    3.8758    0.0187 H         1 <0>         0.0683
     41 H13         6.0008   -1.4324    1.3015 H         1 <0>         0.0428
     42 H14         6.9506   -2.7920    0.7172 H         1 <0>         0.0428
     43 H15         5.6775   -3.0801    1.9075 H         1 <0>         0.0428
     44 H16         5.6668   -3.0433   -2.0050 H         1 <0>         0.0428
     45 H17         4.4770   -4.2349   -1.4119 H         1 <0>         0.0428
     46 H18         6.1381   -4.2836   -0.8382 H         1 <0>         0.0428
     47 H19        -6.9398   -2.8162   -0.7159 H         1 <0>         0.0428
     48 H20        -5.6658   -3.1014   -1.9059 H         1 <0>         0.0428
     49 H21        -5.9946   -1.4542   -1.3020 H         1 <0>         0.0428
     50 H22        -4.4614   -4.2481    1.4149 H         1 <0>         0.0428
     51 H23        -5.6553   -3.0598    2.0064 H         1 <0>         0.0428
     52 H24        -6.1223   -4.3031    0.8412 H         1 <0>         0.0428
     53 H25        -1.8343    5.9532    0.9220 H         1 <0>         0.0988
     54 H26        -1.8491    5.9525   -0.8920 H         1 <0>         0.0988
     55 H27        -1.0621    7.2633    0.0080 H         1 <0>         0.0988
     56 H28         1.8097    5.9615   -0.9219 H         1 <0>         0.0988
     57 H29         1.8252    5.9602    0.8920 H         1 <0>         0.0988
     58 H30         1.0321    7.2679   -0.0073 H         1 <0>         0.0988
@<TRIPOS>BOND
     1    1   14 1
     2    1   23 1
     3    1   24 1
     4    2   15 1
     5    2   25 1
     6    2   26 1
     7    3   16 2
     8    3   27 1
     9    3   28 1
    10    4    5 1
    11    4    6 1
    12    4    7 2
    13    5    8 ar
    14    5   10 ar
    15    6    9 ar
    16    6   11 ar
    17    7   12 1
    18    7   13 1
    19    8   17 ar
    20    8   29 1
    21    9   18 ar
    22    9   30 1
    23   10   19 ar
    24   10   31 1
    25   11   20 ar
    26   11   32 1
    27   12   21 2
    28   12   33 1
    29   13   22 2
    30   13   34 1
    31   14   17 ar
    32   14   19 ar
    33   15   18 ar
    34   15   20 ar
    35   16   21 1
    36   16   22 1
    37   17   35 1
    38   18   36 1
    39   19   37 1
    40   20   38 1
    41   21   39 1
    42   22   40 1
    43   23   41 1
    44   23   42 1
    45   23   43 1
    46   24   44 1
    47   24   45 1
    48   24   46 1
    49   25   47 1
    50   25   48 1
    51   25   49 1
    52   26   50 1
    53   26   51 1
    54   26   52 1
    55   27   53 1
    56   27   54 1
    57   27   55 1
    58   28   56 1
    59   28   57 1
    60   28   58 1
