@<TRIPOS>MOLECULE
DB00382
   29    31     0     0     0
SMALL
USER_CHARGES

@<TRIPOS>ATOM
      1 N1          0.3971    1.6907    0.0296 N.ar      1 <0>        -0.2512
      2 N2          0.5088   -2.5022   -0.0397 N.pl3     1 <0>        -0.3572
      3 C1         -3.2678   -0.4092    0.3438 C.3       1 <0>        -0.0486
      4 C2         -2.0341   -1.2279   -0.0346 C.3       1 <0>        -0.0242
      5 C3         -3.2515    0.9407   -0.3637 C.3       1 <0>        -0.0473
      6 C4         -0.7587   -0.4324    0.0145 C.ar      1 <0>        -0.0049
      7 C5         -2.0295    1.7489    0.0672 C.3       1 <0>        -0.0101
      8 C6         -0.7474    0.9603    0.0165 C.ar      1 <0>         0.0469
      9 C7          0.4749   -1.0833   -0.0056 C.ar      1 <0>         0.0388
     10 C8          1.6685   -0.3512    0.0005 C.ar      1 <0>         0.0213
     11 C9          1.5818    1.0532    0.0194 C.ar      1 <0>         0.0730
     12 C10         2.9229   -0.9853   -0.0133 C.ar      1 <0>        -0.0508
     13 C11         2.7672    1.7834    0.0271 C.ar      1 <0>        -0.0357
     14 C12         4.0932   -0.2318   -0.0060 C.ar      1 <0>        -0.0610
     15 C13         4.0148    1.1549    0.0148 C.ar      1 <0>        -0.0597
     16 H1         -4.1747   -0.9649    0.0801 H         1 <0>         0.0269
     17 H2         -3.2923   -0.2515    1.4298 H         1 <0>         0.0269
     18 H3         -2.1603   -1.6212   -1.0511 H         1 <0>         0.0314
     19 H4         -1.9928   -2.0760    0.6585 H         1 <0>         0.0314
     20 H5         -4.1643    1.5006   -0.1314 H         1 <0>         0.0269
     21 H6         -3.2349    0.7864   -1.4500 H         1 <0>         0.0269
     22 H7         -2.1686    2.0973    1.0981 H         1 <0>         0.0328
     23 H8         -1.9408    2.6372   -0.5690 H         1 <0>         0.0328
     24 H9          3.0427   -2.0633   -0.0294 H         1 <0>         0.0625
     25 H10         2.7321    2.8712    0.0423 H         1 <0>         0.0639
     26 H11        -0.3446   -3.0347   -0.1315 H         1 <0>         0.1423
     27 H12         1.3753   -3.0173   -0.0212 H         1 <0>         0.1423
     28 H13         5.0609   -0.7241   -0.0163 H         1 <0>         0.0618
     29 H14         4.9223    1.7517    0.0207 H         1 <0>         0.0618
@<TRIPOS>BOND
     1    1    8 ar
     2    1   11 ar
     3    2    9 1
     4    2   26 1
     5    2   27 1
     6    3    4 1
     7    3    5 1
     8    3   16 1
     9    3   17 1
    10    4    6 1
    11    4   18 1
    12    4   19 1
    13    5    7 1
    14    5   20 1
    15    5   21 1
    16    6    8 ar
    17    6    9 ar
    18    7    8 1
    19    7   22 1
    20    7   23 1
    21    9   10 ar
    22   10   11 ar
    23   10   12 ar
    24   11   13 ar
    25   12   14 ar
    26   12   24 1
    27   13   15 ar
    28   13   25 1
    29   14   15 ar
    30   14   28 1
    31   15   29 1
