@<TRIPOS>MOLECULE
DB00730
   21    23     0     0     0
SMALL
USER_CHARGES

@<TRIPOS>ATOM
      1 S1          4.8005    0.9477   -0.0006 S.3       1 <0>        -0.0832
      2 N1          0.1759   -1.0209    0.0006 N.pl3     1 <0>        -0.3366
      3 N2          0.1690    1.2017    0.0005 N.2       1 <0>        -0.2261
      4 N3          3.1332   -1.0279    0.0001 N.2       1 <0>        -0.2444
      5 C1         -1.1468   -0.6590    0.0003 C.ar      1 <0>         0.0665
      6 C2         -1.1247    0.7330    0.0003 C.ar      1 <0>         0.0895
      7 C3          0.9221    0.1245    0.0004 C.2       1 <0>         0.1582
      8 C4          2.3962    0.1406    0.0002 C.2       1 <0>         0.1131
      9 C5         -2.3248   -1.4068   -0.0001 C.ar      1 <0>        -0.0362
     10 C6         -2.3405    1.4374    0.0002 C.ar      1 <0>        -0.0342
     11 C7         -3.5256   -0.6896   -0.0004 C.ar      1 <0>        -0.0597
     12 C8         -3.5355    0.7072   -0.0001 C.ar      1 <0>        -0.0596
     13 C9          3.1245    1.3119   -0.0002 C.2       1 <0>         0.0061
     14 C10         4.4121   -0.7239   -0.0002 C.2       1 <0>         0.0655
     15 H1          0.5323   -1.9675    0.0006 H         1 <0>         0.1674
     16 H2         -2.3145   -2.4908   -0.0001 H         1 <0>         0.0639
     17 H3         -2.3589    2.5225    0.0002 H         1 <0>         0.0639
     18 H4         -4.4688   -1.2305   -0.0007 H         1 <0>         0.0618
     19 H5         -4.4849    1.2366   -0.0003 H         1 <0>         0.0618
     20 H6          2.7760    2.3356   -0.0002 H         1 <0>         0.0716
     21 H7          5.1834   -1.4819   -0.0003 H         1 <0>         0.0907
@<TRIPOS>BOND
     1    1   13 1
     2    1   14 1
     3    2    5 1
     4    2    7 1
     5    2   15 1
     6    3    6 1
     7    3    7 2
     8    4    8 1
     9    4   14 2
    10    5    6 ar
    11    5    9 ar
    12    6   10 ar
    13    7    8 1
    14    8   13 2
    15    9   11 ar
    16    9   16 1
    17   10   12 ar
    18   10   17 1
    19   11   12 ar
    20   11   18 1
    21   12   19 1
    22   13   20 1
    23   14   21 1
