@<TRIPOS>MOLECULE
DB00894
   46    49     0     0     0
SMALL
USER_CHARGES

@<TRIPOS>ATOM
      1 O1         -3.4455   -1.0616   -1.0789 O.3       1 <0>        -0.4581
      2 O2         -5.2847   -0.1187   -1.9737 O.2       1 <0>        -0.2508
      3 O3          5.6718    0.7269   -1.7350 O.2       1 <0>        -0.2879
      4 C1         -0.2593    0.5807    0.2430 C.3       1 <0>        -0.0304
      5 C2          0.7242   -0.5068   -0.3016 C.3       1 <0>        -0.0251
      6 C3         -1.6532    0.4426   -0.4291 C.3       1 <0>         0.0024
      7 C4         -2.2630   -0.9572   -0.2418 C.3       1 <0>         0.1138
      8 C5          2.1760   -0.3757    0.2977 C.3       1 <0>         0.0108
      9 C6          0.1046   -1.9130   -0.1374 C.3       1 <0>        -0.0453
     10 C7         -1.2781   -2.0088   -0.7770 C.3       1 <0>        -0.0125
     11 C8          0.3262    1.9919    0.0426 C.3       1 <0>        -0.0458
     12 C9         -2.6593    1.5070    0.0133 C.3       1 <0>        -0.0363
     13 C10         2.6353    1.0708    0.1041 C.2       1 <0>        -0.0560
     14 C11         1.7184    2.1343    0.6468 C.3       1 <0>        -0.0302
     15 C12        -2.6695   -1.3061    1.2003 C.3       1 <0>        -0.0246
     16 C13         2.2264   -0.7254    1.8024 C.3       1 <0>        -0.0521
     17 C14         3.1233   -1.3488   -0.3922 C.2       1 <0>        -0.0702
     18 C15        -4.1020    1.1776   -0.3520 C.3       1 <0>         0.0453
     19 C16        -4.3185   -0.0364   -1.2190 C.2       1 <0>         0.3076
     20 C17         3.7546    1.4188   -0.5505 C.2       1 <0>        -0.0149
     21 C18         4.2378   -1.0096   -1.0475 C.2       1 <0>        -0.0180
     22 C19         4.6405    0.4040   -1.1556 C.2       1 <0>         0.1787
     23 H1         -0.3870    0.4314    1.3224 H         1 <0>         0.0308
     24 H2          0.8126   -0.3339   -1.3869 H         1 <0>         0.0315
     25 H3         -1.5123    0.5969   -1.5106 H         1 <0>         0.0342
     26 H4          0.0351   -2.1812    0.9218 H         1 <0>         0.0270
     27 H5          0.7374   -2.6701   -0.6113 H         1 <0>         0.0270
     28 H6         -1.1806   -1.8973   -1.8658 H         1 <0>         0.0304
     29 H7         -1.6850   -3.0177   -0.6308 H         1 <0>         0.0304
     30 H8         -0.3206    2.7433    0.5092 H         1 <0>         0.0271
     31 H9          0.3650    2.2269   -1.0292 H         1 <0>         0.0271
     32 H10        -2.3963    2.4710   -0.4400 H         1 <0>         0.0274
     33 H11        -2.5980    1.6644    1.0978 H         1 <0>         0.0274
     34 H12         1.6665    2.0603    1.7390 H         1 <0>         0.0310
     35 H13         2.0972    3.1402    0.4276 H         1 <0>         0.0310
     36 H14        -3.4587   -0.6515    1.5799 H         1 <0>         0.0268
     37 H15        -3.0849   -2.3201    1.2425 H         1 <0>         0.0268
     38 H16        -1.8304   -1.2557    1.8990 H         1 <0>         0.0268
     39 H17         3.2175   -0.5147    2.2247 H         1 <0>         0.0241
     40 H18         1.5001   -0.1574    2.3917 H         1 <0>         0.0241
     41 H19         2.0257   -1.7880    1.9821 H         1 <0>         0.0241
     42 H20         2.8984   -2.4105   -0.3220 H         1 <0>         0.0582
     43 H21        -4.5298    2.0395   -0.8788 H         1 <0>         0.0378
     44 H22        -4.6969    1.0400    0.5582 H         1 <0>         0.0378
     45 H23         4.0430    2.4568   -0.6781 H         1 <0>         0.0655
     46 H24         4.8759   -1.7591   -1.5011 H         1 <0>         0.0653
@<TRIPOS>BOND
     1    1    7 1
     2    1   19 1
     3    2   19 2
     4    3   22 2
     5    4    5 1
     6    4    6 1
     7    4   11 1
     8    4   23 1
     9    5    8 1
    10    5    9 1
    11    5   24 1
    12    6    7 1
    13    6   12 1
    14    6   25 1
    15    7   10 1
    16    7   15 1
    17    8   13 1
    18    8   16 1
    19    8   17 1
    20    9   10 1
    21    9   26 1
    22    9   27 1
    23   10   28 1
    24   10   29 1
    25   11   14 1
    26   11   30 1
    27   11   31 1
    28   12   18 1
    29   12   32 1
    30   12   33 1
    31   13   14 1
    32   13   20 2
    33   14   34 1
    34   14   35 1
    35   15   36 1
    36   15   37 1
    37   15   38 1
    38   16   39 1
    39   16   40 1
    40   16   41 1
    41   17   21 2
    42   17   42 1
    43   18   19 1
    44   18   43 1
    45   18   44 1
    46   20   22 1
    47   20   45 1
    48   21   22 1
    49   21   46 1
