@<TRIPOS>MOLECULE
DB00797
   24    25     0     0     0
SMALL
USER_CHARGES

@<TRIPOS>ATOM
      1 N1         -1.9408   -0.9515   -0.1614 N.pl3     1 <0>        -0.2335
      2 N2         -1.8803    1.3230   -0.2099 N.2       1 <0>        -0.0837
      3 C1         -1.3551    0.1929   -0.6108 C.2       1 <0>         0.2854
      4 C2         -3.0413   -0.6354    0.6981 C.3       1 <0>         0.1194
      5 C3         -0.1539    0.1496   -1.4971 C.3       1 <0>         0.0754
      6 C4         -3.0355    0.8995    0.6404 C.3       1 <0>         0.1671
      7 C5          1.1113    0.0789   -0.6908 C.ar      1 <0>        -0.0359
      8 C6          1.7460    1.2532   -0.3042 C.ar      1 <0>        -0.0580
      9 C7          1.6340   -1.1599   -0.3394 C.ar      1 <0>        -0.0580
     10 C8          2.9209    1.1878    0.4448 C.ar      1 <0>        -0.0615
     11 C9          2.8087   -1.2254    0.4097 C.ar      1 <0>        -0.0615
     12 C10         3.4523   -0.0514    0.8019 C.ar      1 <0>        -0.0617
     13 H1         -2.8675   -0.9976    1.7156 H         1 <0>         0.0765
     14 H2         -3.9808   -1.0494    0.3208 H         1 <0>         0.0765
     15 H3         -0.1469    1.0382   -2.1400 H         1 <0>         0.0435
     16 H4         -0.2285   -0.7154   -2.1673 H         1 <0>         0.0435
     17 H5         -3.9651    1.2781    0.2019 H         1 <0>         0.0829
     18 H6         -2.9294    1.3287    1.6422 H         1 <0>         0.0829
     19 H7         -1.6398   -1.8966   -0.3650 H         1 <0>         0.2912
     20 H8          1.3402    2.2240   -0.5752 H         1 <0>         0.0620
     21 H9          1.1408   -2.0806   -0.6384 H         1 <0>         0.0620
     22 H10         3.4216    2.1017    0.7506 H         1 <0>         0.0618
     23 H11         3.2224   -2.1902    0.6881 H         1 <0>         0.0618
     24 H12         4.3668   -0.1024    1.3853 H         1 <0>         0.0618
@<TRIPOS>BOND
     1    1    3 1
     2    1    4 1
     3    1   19 1
     4    2    3 2
     5    2    6 1
     6    3    5 1
     7    4    6 1
     8    4   13 1
     9    4   14 1
    10    5    7 1
    11    5   15 1
    12    5   16 1
    13    6   17 1
    14    6   18 1
    15    7    8 ar
    16    7    9 ar
    17    8   10 ar
    18    8   20 1
    19    9   11 ar
    20    9   21 1
    21   10   12 ar
    22   10   22 1
    23   11   12 ar
    24   11   23 1
    25   12   24 1
