@<TRIPOS>MOLECULE
DB00427
   43    45     0     0     0
SMALL
USER_CHARGES

@<TRIPOS>ATOM
      1 N1          2.5317   -1.0980    0.6772 N.3       1 <0>        -0.2987
      2 N2         -1.8366   -2.9032   -0.1871 N.ar      1 <0>        -0.2550
      3 C1          3.7728   -0.4095    1.0307 C.3       1 <0>        -0.0008
      4 C2          2.4205   -0.9587   -0.7746 C.3       1 <0>        -0.0008
      5 C3          4.7317   -0.8534   -0.0640 C.3       1 <0>        -0.0390
      6 C4          3.8432   -1.2110   -1.2516 C.3       1 <0>        -0.0390
      7 C5          1.3767   -0.5556    1.3775 C.3       1 <0>         0.0180
      8 C6          0.1168   -1.2829    0.9940 C.2       1 <0>        -0.0603
      9 C7         -1.0128   -0.7663    0.4609 C.2       1 <0>         0.0048
     10 C8         -1.0483    0.6983    0.2096 C.ar      1 <0>        -0.0161
     11 C9         -2.1606   -1.6449    0.1430 C.ar      1 <0>         0.0713
     12 C10        -1.5086    1.5335    1.2059 C.ar      1 <0>        -0.0537
     13 C11        -0.6197    1.1746   -1.0118 C.ar      1 <0>        -0.0537
     14 C12        -3.4314   -1.1289    0.2039 C.ar      1 <0>        -0.0357
     15 C13        -1.1140    3.4157   -0.2567 C.ar      1 <0>        -0.0504
     16 C14        -1.5419    2.9078    0.9700 C.ar      1 <0>        -0.0583
     17 C15        -0.6529    2.5489   -1.2475 C.ar      1 <0>        -0.0583
     18 C16        -4.4776   -1.9913   -0.1047 C.ar      1 <0>        -0.0583
     19 C17        -1.1489    4.8853   -0.5081 C.3       1 <0>        -0.0397
     20 C18        -2.8793   -3.7122   -0.4805 C.ar      1 <0>         0.0283
     21 C19        -4.2047   -3.3092   -0.4543 C.ar      1 <0>        -0.0436
     22 H1          4.1349   -0.6942    2.0235 H         1 <0>         0.0427
     23 H2          3.6576    0.6817    1.0000 H         1 <0>         0.0427
     24 H3          2.1220    0.0560   -1.0642 H         1 <0>         0.0427
     25 H4          1.7261   -1.6753   -1.2246 H         1 <0>         0.0427
     26 H5          5.3014   -1.7354    0.2516 H         1 <0>         0.0278
     27 H6          5.4469   -0.0639   -0.3159 H         1 <0>         0.0278
     28 H7          4.0838   -0.6089   -2.1336 H         1 <0>         0.0278
     29 H8          3.9847   -2.2657   -1.5153 H         1 <0>         0.0278
     30 H9          1.3030    0.5260    1.2237 H         1 <0>         0.0470
     31 H10         1.5154   -0.7009    2.4565 H         1 <0>         0.0470
     32 H11         0.1557   -2.3513    1.2096 H         1 <0>         0.0591
     33 H12        -1.8418    1.1497    2.1659 H         1 <0>         0.0624
     34 H13        -0.2653    0.5085   -1.7931 H         1 <0>         0.0624
     35 H14        -3.6605   -0.1074    0.4810 H         1 <0>         0.0639
     36 H15        -1.9010    3.5730    1.7509 H         1 <0>         0.0620
     37 H16        -0.3162    2.9324   -2.2072 H         1 <0>         0.0620
     38 H17        -5.5038   -1.6381   -0.0713 H         1 <0>         0.0619
     39 H18        -1.9657    5.3614    0.0447 H         1 <0>         0.0278
     40 H19        -0.2032    5.3416   -0.1993 H         1 <0>         0.0278
     41 H20        -1.3124    5.1008   -1.5696 H         1 <0>         0.0278
     42 H21        -2.6133   -4.7298   -0.7468 H         1 <0>         0.0830
     43 H22        -5.0043   -3.9992   -0.6982 H         1 <0>         0.0633
@<TRIPOS>BOND
     1    1    3 1
     2    1    4 1
     3    1    7 1
     4    2   11 ar
     5    2   20 ar
     6    3    5 1
     7    3   22 1
     8    3   23 1
     9    4    6 1
    10    4   24 1
    11    4   25 1
    12    5    6 1
    13    5   26 1
    14    5   27 1
    15    6   28 1
    16    6   29 1
    17    7    8 1
    18    7   30 1
    19    7   31 1
    20    8    9 2
    21    8   32 1
    22    9   10 1
    23    9   11 1
    24   10   12 ar
    25   10   13 ar
    26   11   14 ar
    27   12   16 ar
    28   12   33 1
    29   13   17 ar
    30   13   34 1
    31   14   18 ar
    32   14   35 1
    33   15   16 ar
    34   15   17 ar
    35   15   19 1
    36   16   36 1
    37   17   37 1
    38   18   21 ar
    39   18   38 1
    40   19   39 1
    41   19   40 1
    42   19   41 1
    43   20   21 ar
    44   20   42 1
    45   21   43 1
