@<TRIPOS>MOLECULE
DB00454
   39    40     0     0     0
SMALL
USER_CHARGES

@<TRIPOS>ATOM
      1 O1         -2.1639    1.0040   -0.0075 O.3       1 <0>        -0.4643
      2 O2         -1.3253    1.6297    2.0520 O.2       1 <0>        -0.2498
      3 N1          2.9296    1.1020   -0.0367 N.3       1 <0>        -0.3052
      4 C1          0.0664    0.4325    0.4728 C.3       1 <0>         0.0949
      5 C2          1.1395    0.5933    1.5826 C.3       1 <0>        -0.0203
      6 C3          0.5577    1.2698   -0.7388 C.3       1 <0>        -0.0203
      7 C4          2.5481    0.2464    1.0920 C.3       1 <0>        -0.0001
      8 C5          1.9976    0.9464   -1.1589 C.3       1 <0>        -0.0001
      9 C6         -0.2636   -1.0395    0.1853 C.ar      1 <0>        -0.0305
     10 C7         -1.2047    1.0975    0.9569 C.2       1 <0>         0.3178
     11 C8          4.2991    0.8137   -0.4614 C.3       1 <0>        -0.0128
     12 C9         -0.7391   -1.8553    1.2087 C.ar      1 <0>        -0.0575
     13 C10        -0.0857   -1.5515   -1.0972 C.ar      1 <0>        -0.0575
     14 C11        -1.0385   -3.1924    0.9479 C.ar      1 <0>        -0.0615
     15 C12        -0.3852   -2.8885   -1.3582 C.ar      1 <0>        -0.0615
     16 C13        -0.8616   -3.7090   -0.3356 C.ar      1 <0>        -0.0617
     17 C14        -3.4255    1.5951    0.3205 C.3       1 <0>         0.0897
     18 C15        -4.3748    1.4088   -0.8438 C.3       1 <0>        -0.0306
     19 H1          0.9081   -0.0190    2.4627 H         1 <0>         0.0291
     20 H2          1.1585    1.6322    1.9436 H         1 <0>         0.0291
     21 H3          0.5176    2.3379   -0.4757 H         1 <0>         0.0291
     22 H4         -0.1092    1.1712   -1.6048 H         1 <0>         0.0291
     23 H5          3.2443    0.4059    1.9247 H         1 <0>         0.0427
     24 H6          2.6051   -0.8161    0.8229 H         1 <0>         0.0427
     25 H7          2.0892   -0.0554   -1.5878 H         1 <0>         0.0427
     26 H8          2.2740    1.6494   -1.9551 H         1 <0>         0.0427
     27 H9          5.0011    0.9847    0.3622 H         1 <0>         0.0391
     28 H10         4.5997    1.4848   -1.2736 H         1 <0>         0.0391
     29 H11         4.4174   -0.2200   -0.8060 H         1 <0>         0.0391
     30 H12        -0.8921   -1.4727    2.2139 H         1 <0>         0.0621
     31 H13         0.2351   -0.9578   -1.9428 H         1 <0>         0.0621
     32 H14        -1.4118   -3.8307    1.7434 H         1 <0>         0.0618
     33 H15        -0.2580   -3.2891   -2.3597 H         1 <0>         0.0618
     34 H16        -1.0977   -4.7492   -0.5395 H         1 <0>         0.0618
     35 H17        -3.8345    1.1093    1.2134 H         1 <0>         0.0694
     36 H18        -3.2873    2.6637    0.5184 H         1 <0>         0.0694
     37 H19        -5.3517    1.8496   -0.6264 H         1 <0>         0.0262
     38 H20        -3.9701    1.8736   -1.7488 H         1 <0>         0.0262
     39 H21        -4.5080    0.3447   -1.0655 H         1 <0>         0.0262
@<TRIPOS>BOND
     1    1   10 1
     2    1   17 1
     3    2   10 2
     4    3    7 1
     5    3    8 1
     6    3   11 1
     7    4    5 1
     8    4    6 1
     9    4    9 1
    10    4   10 1
    11    5    7 1
    12    5   19 1
    13    5   20 1
    14    6    8 1
    15    6   21 1
    16    6   22 1
    17    7   23 1
    18    7   24 1
    19    8   25 1
    20    8   26 1
    21    9   12 ar
    22    9   13 ar
    23   11   27 1
    24   11   28 1
    25   11   29 1
    26   12   14 ar
    27   12   30 1
    28   13   15 ar
    29   13   31 1
    30   14   16 ar
    31   14   32 1
    32   15   16 ar
    33   15   33 1
    34   16   34 1
    35   17   18 1
    36   17   35 1
    37   17   36 1
    38   18   37 1
    39   18   38 1
    40   18   39 1
