@<TRIPOS>MOLECULE
DB00117
 11 11 0 0 0
SMALL
GASTEIGER

@<TRIPOS>ATOM
      1 CG         -0.7942   -0.0787    0.0000 C.ar    1  HIS1        0.0819
      2 CB         -0.0796    0.3337    0.0000 C.3     1  HIS1        0.0780
      3 CA          0.6348   -0.0787    0.0000 C.3     1  HIS1        0.2003
      4 CD2        -0.7942   -0.9037    0.0000 C.ar    1  HIS1        0.1154
      5 N           0.6348   -0.9037    0.0000 N.3     1  HIS1       -0.1204
      6 ND1        -1.5788    0.1761    0.0000 N.ar    1  HIS1       -0.2268
      7 CE1        -2.0635   -0.4912    0.0000 C.ar    1  HIS1        0.1986
      8 NE2        -1.5787   -1.1587    0.0000 N.ar    1  HIS1       -0.2212
      9 O           1.3492    1.1587    0.0000 O.co2   1  HIS1       -0.2440
     10 C           1.3493    0.3337    0.0000 C.2     1  HIS1        0.3823
     11 OXT         2.0636   -0.0786    0.0000 O.co2   1  HIS1       -0.2440
@<TRIPOS>BOND
     1     6     1   ar
     2     1     2    1
     3     2     3    1
     4     3    10    1
     5     4     1   ar
     6     8     4   ar
     7     3     5    1
     8     7     6   ar
     9     7     8   ar
    10    10     9   ar
    11    11    10   ar
