@<TRIPOS>MOLECULE
DB00876
   54    56     0     0     0
SMALL
USER_CHARGES

@<TRIPOS>ATOM
      1 S1          5.6354    0.7441   -1.6772 S.3       1 <0>        -0.1013
      2 O1          4.6226   -0.8516    1.4711 O.3       1 <0>        -0.4773
      3 O2          3.8915    0.5439    3.1111 O.2       1 <0>        -0.2455
      4 O3         -1.0203   -5.9112   -1.7939 O.3       1 <0>        -0.4771
      5 O4          1.1298   -6.0638   -1.0728 O.2       1 <0>        -0.2451
      6 N1         -0.7205    0.6263    0.8087 N.pl3     1 <0>        -0.3236
      7 N2         -1.0186    2.2574   -0.6688 N.2       1 <0>        -0.2400
      8 C1         -1.5864    1.2472   -0.0481 C.cat     1 <0>         0.1104
      9 C2         -3.0129    0.7899   -0.2215 C.3       1 <0>         0.0056
     10 C3         -3.9862    1.9720   -0.2163 C.3       1 <0>        -0.0465
     11 C4         -1.0327   -0.5167    1.6398 C.3       1 <0>         0.0499
     12 C5          0.4757    1.2820    0.7288 C.2       1 <0>         0.0622
     13 C6         -5.4333    1.4995   -0.3567 C.3       1 <0>        -0.0555
     14 C7         -0.7489   -1.8099    0.9246 C.ar      1 <0>        -0.0277
     15 C8          0.2670    2.2841   -0.1894 C.2       1 <0>         0.0531
     16 C9          1.5747    0.8728    1.4988 C.2       1 <0>        -0.0264
     17 C10         2.7687    0.4835    0.9773 C.2       1 <0>         0.0432
     18 C11        -6.4074    2.6658   -0.3117 C.3       1 <0>        -0.0653
     19 C12         0.5103   -2.4012    1.0272 C.ar      1 <0>        -0.0561
     20 C13        -1.7440   -2.4165    0.1581 C.ar      1 <0>        -0.0561
     21 C14         3.1299    0.4302   -0.4933 C.3       1 <0>         0.0106
     22 C15         0.7743   -3.5992    0.3635 C.ar      1 <0>        -0.0475
     23 C16        -1.4798   -3.6146   -0.5057 C.ar      1 <0>        -0.0475
     24 C17        -0.2208   -4.2059   -0.4029 C.ar      1 <0>         0.0589
     25 C18         4.2384    1.3729   -0.9121 C.2       1 <0>        -0.0057
     26 C19         3.7980    0.0926    1.9801 C.2       1 <0>         0.3332
     27 C20         4.3019    2.7410   -0.7637 C.2       1 <0>        -0.0512
     28 C21         0.0549   -5.4553   -1.0946 C.2       1 <0>         0.3368
     29 C22         5.5132    3.2801   -1.2852 C.2       1 <0>        -0.0545
     30 C23         6.3296    2.3035   -1.8121 C.2       1 <0>        -0.0241
     31 H1         -3.0865    0.2574   -1.1774 H         1 <0>         0.0343
     32 H2         -3.3385    0.1019    0.5584 H         1 <0>         0.0343
     33 H3         -2.0678   -0.4628    1.9876 H         1 <0>         0.0542
     34 H4         -0.4434   -0.4568    2.5623 H         1 <0>         0.0542
     35 H5         -3.7449    2.6611   -1.0353 H         1 <0>         0.0269
     36 H6         -3.8731    2.5378    0.7174 H         1 <0>         0.0269
     37 H7         -5.5582    0.9603   -1.3031 H         1 <0>         0.0263
     38 H8         -5.6780    0.7993    0.4507 H         1 <0>         0.0263
     39 H9          0.9710    3.0288   -0.5318 H         1 <0>         0.0851
     40 H10         1.4308    0.8473    2.5769 H         1 <0>         0.0644
     41 H11        -6.3305    3.2050    0.6379 H         1 <0>         0.0230
     42 H12        -7.4356    2.3052   -0.4154 H         1 <0>         0.0230
     43 H13        -6.2114    3.3719   -1.1250 H         1 <0>         0.0230
     44 H14         1.2894   -1.9620    1.6411 H         1 <0>         0.0621
     45 H15        -2.7373   -1.9892    0.0788 H         1 <0>         0.0621
     46 H16         2.2644    0.6473   -1.1291 H         1 <0>         0.0369
     47 H17         3.3919   -0.6067   -0.7438 H         1 <0>         0.0369
     48 H18         1.7600   -4.0468    0.4613 H         1 <0>         0.0626
     49 H19        -2.2844   -4.0552   -1.0879 H         1 <0>         0.0626
     50 H20         3.5216    3.3332   -0.3036 H         1 <0>         0.0626
     51 H21         5.7729    4.3306   -1.2742 H         1 <0>         0.0623
     52 H22         7.3005    2.4313   -2.2696 H         1 <0>         0.0693
     53 H23         5.3076   -1.1278    2.1166 H         1 <0>         0.2954
     54 H24        -0.8245   -6.7540   -2.2560 H         1 <0>         0.2954
@<TRIPOS>BOND
     1    1   25 1
     2    1   30 1
     3    2   26 1
     4    2   53 1
     5    3   26 2
     6    4   28 1
     7    4   54 1
     8    5   28 2
     9    6    8 1
    10    6   11 1
    11    6   12 2
    12    7    8 1
    13    7   15 2
    14    8    9 1
    15    9   10 1
    16    9   31 1
    17    9   32 1
    18   10   13 1
    19   10   35 1
    20   10   36 1
    21   11   14 1
    22   11   33 1
    23   11   34 1
    24   12   15 1
    25   12   16 1
    26   13   18 1
    27   13   37 1
    28   13   38 1
    29   14   19 ar
    30   14   20 ar
    31   15   39 1
    32   16   17 2
    33   16   40 1
    34   17   21 1
    35   17   26 1
    36   18   41 1
    37   18   42 1
    38   18   43 1
    39   19   22 ar
    40   19   44 1
    41   20   23 ar
    42   20   45 1
    43   21   25 1
    44   21   46 1
    45   21   47 1
    46   22   24 ar
    47   22   48 1
    48   23   24 ar
    49   23   49 1
    50   24   28 1
    51   25   27 2
    52   27   29 1
    53   27   50 1
    54   29   30 2
    55   29   51 1
    56   30   52 1
