@<TRIPOS>MOLECULE
DB00758
   37    39     0     0     0
SMALL
USER_CHARGES

@<TRIPOS>ATOM
      1 Cl1        -2.9649    0.6189    2.7544 Cl        1 <0>        -0.0832
      2 S1          4.8849   -0.0097   -0.6976 S.3       1 <0>        -0.1012
      3 O1         -1.5699   -1.9845   -0.7702 O.3       1 <0>        -0.4666
      4 O2         -1.6574   -2.6910    1.4212 O.2       1 <0>        -0.2487
      5 N1          0.5487   -0.4186    0.2753 N.3       1 <0>        -0.2817
      6 C1          1.3622   -1.5713    0.7156 C.3       1 <0>         0.0048
      7 C2          1.1971    0.8681    0.6151 C.3       1 <0>         0.0259
      8 C3         -0.7879   -0.4777    0.8672 C.3       1 <0>         0.1355
      9 C4          2.6912   -1.6448   -0.0627 C.3       1 <0>        -0.0083
     10 C5          2.6099    0.8813    0.1136 C.2       1 <0>        -0.0231
     11 C6          3.2942   -0.2830   -0.1695 C.2       1 <0>        -0.0046
     12 C7         -1.6668    0.6443    0.3578 C.ar      1 <0>        -0.0012
     13 C8          3.4306    2.0279   -0.1059 C.2       1 <0>        -0.0501
     14 C9         -1.3790   -1.8481    0.5779 C.2       1 <0>         0.3289
     15 C10         4.6912    1.6867   -0.5494 C.2       1 <0>        -0.0238
     16 C11        -2.6648    1.1848    1.1517 C.ar      1 <0>         0.0462
     17 C12        -1.4367    1.1086   -0.9276 C.ar      1 <0>        -0.0552
     18 C13        -3.4547    2.2177    0.6472 C.ar      1 <0>        -0.0431
     19 C14        -2.2268    2.1417   -1.4319 C.ar      1 <0>        -0.0614
     20 C15        -3.2358    2.6962   -0.6447 C.ar      1 <0>        -0.0604
     21 C16        -2.1434   -3.2266   -1.1903 C.3       1 <0>         0.0817
     22 H1          0.8759   -2.5373    0.5466 H         1 <0>         0.0430
     23 H2          1.5672   -1.5007    1.7930 H         1 <0>         0.0430
     24 H3          1.2220    1.0127    1.7041 H         1 <0>         0.0476
     25 H4          0.6974    1.7394    0.1838 H         1 <0>         0.0476
     26 H5         -0.6702   -0.4058    1.9558 H         1 <0>         0.0630
     27 H6          2.5030   -2.0308   -1.0724 H         1 <0>         0.0331
     28 H7          3.3732   -2.3384    0.4418 H         1 <0>         0.0331
     29 H8          3.1163    3.0512    0.0549 H         1 <0>         0.0626
     30 H9          5.5075    2.3523   -0.7922 H         1 <0>         0.0693
     31 H10        -0.6875    0.6831   -1.5889 H         1 <0>         0.0621
     32 H11        -4.2453    2.6604    1.2477 H         1 <0>         0.0632
     33 H12        -2.0621    2.5090   -2.4407 H         1 <0>         0.0618
     34 H13        -3.8521    3.4992   -1.0382 H         1 <0>         0.0618
     35 H14        -2.2422   -3.2041   -2.2788 H         1 <0>         0.0661
     36 H15        -3.1368   -3.3529   -0.7497 H         1 <0>         0.0661
     37 H16        -1.4882   -4.0581   -0.9140 H         1 <0>         0.0661
@<TRIPOS>BOND
     1    1   16 1
     2    2   11 1
     3    2   15 1
     4    3   14 1
     5    3   21 1
     6    4   14 2
     7    5    6 1
     8    5    7 1
     9    5    8 1
    10    6    9 1
    11    6   22 1
    12    6   23 1
    13    7   10 1
    14    7   24 1
    15    7   25 1
    16    8   12 1
    17    8   14 1
    18    8   26 1
    19    9   11 1
    20    9   27 1
    21    9   28 1
    22   10   11 2
    23   10   13 1
    24   12   16 ar
    25   12   17 ar
    26   13   15 2
    27   13   29 1
    28   15   30 1
    29   16   18 ar
    30   17   19 ar
    31   17   31 1
    32   18   20 ar
    33   18   32 1
    34   19   20 ar
    35   19   33 1
    36   20   34 1
    37   21   35 1
    38   21   36 1
    39   21   37 1
