@<TRIPOS>MOLECULE
DB00217
   28    28     0     0     0
SMALL
USER_CHARGES

@<TRIPOS>ATOM
      1 N1          0.6648   -0.7606    0.9076 N.pl3     1 <0>        -0.2718
      2 N2          2.6905   -0.6819   -0.2575 N.pl3     1 <0>        -0.2786
      3 N3          1.7764    1.3246    0.5153 N.2       1 <0>        -0.1169
      4 C1         -0.5017   -0.3157    1.6364 C.3       1 <0>         0.0900
      5 C2         -1.6619   -0.0329    0.7195 C.ar      1 <0>        -0.0141
      6 C3         -1.8211    1.2408    0.1922 C.ar      1 <0>        -0.0556
      7 C4         -2.5556   -1.0501    0.4148 C.ar      1 <0>        -0.0556
      8 C5          1.6963    0.0267    0.4044 C.2       1 <0>         0.3808
      9 C6         -2.8962    1.5027   -0.6573 C.ar      1 <0>        -0.0614
     10 C7         -3.6305   -0.7881   -0.4346 C.ar      1 <0>        -0.0614
     11 C8         -3.8008    0.4885   -0.9707 C.ar      1 <0>        -0.0617
     12 C9          2.4762   -1.9171   -0.9760 C.3       1 <0>         0.0534
     13 C10         2.9284    1.9945   -0.0710 C.3       1 <0>         0.0940
     14 H1         -0.2676    0.5696    2.2407 H         1 <0>         0.0706
     15 H2         -0.7861   -1.0911    2.3586 H         1 <0>         0.0706
     16 H3          0.7200   -1.7659    0.7727 H         1 <0>         0.2582
     17 H4         -1.1246    2.0393    0.4307 H         1 <0>         0.0621
     18 H5         -2.4310   -2.0482    0.8254 H         1 <0>         0.0621
     19 H6         -3.0290    2.4967   -1.0744 H         1 <0>         0.0618
     20 H7         -4.3347   -1.5780   -0.6792 H         1 <0>         0.0618
     21 H8         -4.6377    0.6925   -1.6321 H         1 <0>         0.0618
     22 H9          3.5605   -0.2164   -0.4956 H         1 <0>         0.2576
     23 H10         1.5933   -1.8500   -1.6193 H         1 <0>         0.0618
     24 H11         2.3592   -2.7562   -0.2838 H         1 <0>         0.0618
     25 H12         3.3412   -2.1293   -1.6122 H         1 <0>         0.0618
     26 H13         3.8599    1.7148    0.4321 H         1 <0>         0.0656
     27 H14         2.8078    3.0747    0.0622 H         1 <0>         0.0656
     28 H15         3.0040    1.8164   -1.1490 H         1 <0>         0.0656
@<TRIPOS>BOND
     1    1    4 1
     2    1    8 1
     3    1   16 1
     4    2    8 1
     5    2   12 1
     6    2   22 1
     7    3    8 2
     8    3   13 1
     9    4    5 1
    10    4   14 1
    11    4   15 1
    12    5    6 ar
    13    5    7 ar
    14    6    9 ar
    15    6   17 1
    16    7   10 ar
    17    7   18 1
    18    9   11 ar
    19    9   19 1
    20   10   11 ar
    21   10   20 1
    22   11   21 1
    23   12   23 1
    24   12   24 1
    25   12   25 1
    26   13   26 1
    27   13   27 1
    28   13   28 1
