@<TRIPOS>MOLECULE
DB00844
   53    58     0     0     0
SMALL
USER_CHARGES

@<TRIPOS>ATOM
      1 O1          3.6772   -0.1844   -1.2198 O.3       1 <0>        -0.4813
      2 O2         -0.3660   -2.2971   -0.6238 O.3       1 <0>        -0.3860
      3 O3          3.8217   -1.3667    1.2164 O.3       1 <0>        -0.3881
      4 O4          5.1463    2.2190   -0.4318 O.3       1 <0>        -0.5033
      5 N1         -1.4786    0.2231   -0.8873 N.3       1 <0>        -0.2960
      6 C1          1.3217   -0.5419   -0.8011 C.3       1 <0>         0.0701
      7 C2          0.2640   -1.2142    0.0860 C.3       1 <0>         0.0951
      8 C3         -0.8121   -0.1204    0.3975 C.3       1 <0>         0.0441
      9 C4          2.6836   -1.2449   -0.9803 C.3       1 <0>         0.1384
     10 C5          0.6728   -0.1181   -2.1431 C.3       1 <0>        -0.0242
     11 C6          1.8517    0.6874   -0.1497 C.ar      1 <0>         0.0137
     12 C7          0.8821   -1.8792    1.3241 C.3       1 <0>        -0.0191
     13 C8          3.1481   -2.1276    0.2111 C.3       1 <0>         0.0930
     14 C9         -0.2117    1.1083    1.1666 C.3       1 <0>        -0.0089
     15 C10        -0.5854    0.7477   -1.9270 C.3       1 <0>         0.0003
     16 C11         1.9977   -2.8530    0.9077 C.3       1 <0>        -0.0207
     17 C12         1.1632    1.5196    0.7108 C.ar      1 <0>        -0.0382
     18 C13         3.1716    0.8837   -0.5081 C.ar      1 <0>         0.1664
     19 C14        -2.6625    1.0599   -0.7268 C.3       1 <0>         0.0021
     20 C15        -3.6018    0.4978    0.3173 C.3       1 <0>        -0.0282
     21 C16         1.8423    2.6508    1.1624 C.ar      1 <0>        -0.0546
     22 C17        -4.1378   -0.9169    0.0145 C.3       1 <0>        -0.0490
     23 C18        -5.0601    0.9904    0.2088 C.3       1 <0>        -0.0490
     24 C19         3.8538    2.0021   -0.0884 C.ar      1 <0>         0.1588
     25 C20        -5.4911   -0.4429    0.5842 C.3       1 <0>        -0.0525
     26 C21         3.1708    2.8970    0.7491 C.ar      1 <0>        -0.0162
     27 H1         -1.5368   -0.6110    1.0547 H         1 <0>         0.0494
     28 H2          2.6480   -1.8788   -1.8755 H         1 <0>         0.0769
     29 H3          0.3958   -1.0136   -2.7143 H         1 <0>         0.0288
     30 H4          1.3759    0.4379   -2.7770 H         1 <0>         0.0288
     31 H5          0.1131   -2.4508    1.8590 H         1 <0>         0.0294
     32 H6          1.2792   -1.1432    2.0310 H         1 <0>         0.0294
     33 H7          3.8776   -2.8613   -0.1510 H         1 <0>         0.0630
     34 H8         -0.1323    0.8306    2.2261 H         1 <0>         0.0329
     35 H9         -0.8855    1.9699    1.1277 H         1 <0>         0.0329
     36 H10        -0.2866    1.7780   -1.6970 H         1 <0>         0.0427
     37 H11        -1.1235    0.7933   -2.8822 H         1 <0>         0.0427
     38 H12         2.3725   -3.3435    1.8150 H         1 <0>         0.0292
     39 H13         1.6062   -3.6462    0.2619 H         1 <0>         0.0292
     40 H14        -2.3982    2.0926   -0.4699 H         1 <0>         0.0429
     41 H15        -3.1793    1.1101   -1.6943 H         1 <0>         0.0429
     42 H16         0.3079   -2.7589   -1.1497 H         1 <0>         0.2103
     43 H17        -3.2427    0.6170    1.3492 H         1 <0>         0.0313
     44 H18         1.3600    3.3450    1.8452 H         1 <0>         0.0622
     45 H19        -3.6653   -1.7385    0.5593 H         1 <0>         0.0268
     46 H20        -4.1838   -1.1780   -1.0497 H         1 <0>         0.0268
     47 H21        -5.3776    1.2893   -0.7972 H         1 <0>         0.0268
     48 H22        -5.3523    1.7705    0.9168 H         1 <0>         0.0268
     49 H23        -6.3811   -0.8216    0.0760 H         1 <0>         0.0265
     50 H24        -5.5973   -0.6042    1.6630 H         1 <0>         0.0265
     51 H25         4.6289   -1.0052    0.8122 H         1 <0>         0.2099
     52 H26         3.6729    3.7885    1.1190 H         1 <0>         0.0655
     53 H27         5.4428    3.0524   -0.0275 H         1 <0>         0.2923
@<TRIPOS>BOND
     1    1    9 1
     2    1   18 1
     3    2    7 1
     4    2   42 1
     5    3   13 1
     6    3   51 1
     7    4   24 1
     8    4   53 1
     9    5    8 1
    10    5   15 1
    11    5   19 1
    12    6    7 1
    13    6    9 1
    14    6   10 1
    15    6   11 1
    16    7    8 1
    17    7   12 1
    18    8   14 1
    19    8   27 1
    20    9   13 1
    21    9   28 1
    22   10   15 1
    23   10   29 1
    24   10   30 1
    25   11   17 ar
    26   11   18 ar
    27   12   16 1
    28   12   31 1
    29   12   32 1
    30   13   16 1
    31   13   33 1
    32   14   17 1
    33   14   34 1
    34   14   35 1
    35   15   36 1
    36   15   37 1
    37   16   38 1
    38   16   39 1
    39   17   21 ar
    40   18   24 ar
    41   19   20 1
    42   19   40 1
    43   19   41 1
    44   20   22 1
    45   20   23 1
    46   20   43 1
    47   21   26 ar
    48   21   44 1
    49   22   25 1
    50   22   45 1
    51   22   46 1
    52   23   25 1
    53   23   47 1
    54   23   48 1
    55   24   26 ar
    56   25   49 1
    57   25   50 1
    58   26   52 1
