@<TRIPOS>MOLECULE
DB00177
   61    63     0     0     0
SMALL
USER_CHARGES

@<TRIPOS>ATOM
      1 O1         -0.5850    2.5283   -1.5767 O.3       1 <0>        -0.4793
      2 O2          3.3938    0.7630   -1.2592 O.2       1 <0>        -0.2756
      3 O3          1.0467    1.1584   -2.3208 O.2       1 <0>        -0.2489
      4 N1          1.7575    0.6177    0.3781 N.am      1 <0>        -0.2834
      5 N2         -4.7988    1.1879   -1.9294 N.2       1 <0>        -0.1331
      6 N3         -4.3274    1.6295    0.2409 N.2       1 <0>        -0.1080
      7 N4         -4.3329    2.4259   -1.7125 N.pl3     1 <0>        -0.1761
      8 N5         -4.0405    2.7315   -0.4407 N.2       1 <0>        -0.0485
      9 C1          1.1483    1.8854   -0.0052 C.3       1 <0>         0.1254
     10 C2          2.1572    3.0391    0.1805 C.3       1 <0>        -0.0177
     11 C3          1.1135   -0.0679    1.4962 C.3       1 <0>         0.0406
     12 C4          2.8786    0.1533   -0.3183 C.2       1 <0>         0.2165
     13 C5          1.5601    4.4171   -0.1211 C.3       1 <0>        -0.0605
     14 C6          2.7958    3.0318    1.5721 C.3       1 <0>        -0.0605
     15 C7          3.4541   -1.1781    0.1465 C.3       1 <0>         0.0242
     16 C8          0.5429    1.7964   -1.4033 C.2       1 <0>         0.3257
     17 C9         -0.3065   -0.4418    1.1832 C.ar      1 <0>        -0.0300
     18 C10         4.6749   -1.6078   -0.6689 C.3       1 <0>        -0.0450
     19 C11         5.2059   -2.9630   -0.2031 C.3       1 <0>        -0.0555
     20 C12        -0.6210   -1.0204   -0.0465 C.ar      1 <0>        -0.0565
     21 C13        -1.3111   -0.2109    2.1229 C.ar      1 <0>        -0.0565
     22 C14        -2.9450   -1.1373    0.6033 C.ar      1 <0>        -0.0172
     23 C15        -1.9402   -1.3682   -0.3363 C.ar      1 <0>        -0.0537
     24 C16        -2.6305   -0.5587    1.8329 C.ar      1 <0>        -0.0537
     25 C17         6.3964   -3.4110   -1.0357 C.3       1 <0>        -0.0653
     26 C18        -4.3131   -1.4991    0.3032 C.ar      1 <0>        -0.0071
     27 C19        -5.1892   -0.6039   -0.3105 C.ar      1 <0>         0.0304
     28 C20        -4.7492   -2.7797    0.6429 C.ar      1 <0>        -0.0534
     29 C21        -6.5015   -0.9893   -0.5843 C.ar      1 <0>        -0.0503
     30 C22        -6.0615   -3.1651    0.3692 C.ar      1 <0>        -0.0611
     31 C23        -4.7776    0.7270   -0.6762 C.2       1 <0>         0.2049
     32 C24        -6.9378   -2.2699   -0.2444 C.ar      1 <0>        -0.0611
     33 H1          0.3083    2.0811    0.6751 H         1 <0>         0.0619
     34 H2          2.9758    2.9326   -0.5402 H         1 <0>         0.0319
     35 H3          1.1576    0.6127    2.3552 H         1 <0>         0.0514
     36 H4          1.6471   -0.9734    1.7923 H         1 <0>         0.0514
     37 H5          1.2373    4.4917   -1.1641 H         1 <0>         0.0233
     38 H6          0.6966    4.6197    0.5212 H         1 <0>         0.0233
     39 H7          2.2986    5.2086    0.0466 H         1 <0>         0.0233
     40 H8          3.3856    2.1279    1.7513 H         1 <0>         0.0233
     41 H9          3.4764    3.8823    1.6899 H         1 <0>         0.0233
     42 H10         2.0327    3.1060    2.3544 H         1 <0>         0.0233
     43 H11         3.7459   -1.0826    1.1985 H         1 <0>         0.0358
     44 H12         2.6745   -1.9431    0.0581 H         1 <0>         0.0358
     45 H13         4.4063   -1.6642   -1.7313 H         1 <0>         0.0270
     46 H14         5.4639   -0.8505   -0.5817 H         1 <0>         0.0270
     47 H15         4.4146   -3.7183   -0.2751 H         1 <0>         0.0263
     48 H16         5.5036   -2.9041    0.8502 H         1 <0>         0.0263
     49 H17         0.1471   -1.2272   -0.7863 H         1 <0>         0.0621
     50 H18        -1.0800    0.2383    3.0851 H         1 <0>         0.0621
     51 H19        -2.1678   -1.8215   -1.2982 H         1 <0>         0.0624
     52 H20        -3.4014   -0.3726    2.5770 H         1 <0>         0.0624
     53 H21         7.2188   -2.6923   -0.9624 H         1 <0>         0.0230
     54 H22         6.1217   -3.5128   -2.0904 H         1 <0>         0.0230
     55 H23         6.7608   -4.3815   -0.6846 H         1 <0>         0.0230
     56 H24        -0.9289    2.4604   -2.4929 H         1 <0>         0.2951
     57 H25        -4.0812   -3.4919    1.1220 H         1 <0>         0.0624
     58 H26        -7.2021   -0.3060   -1.0589 H         1 <0>         0.0625
     59 H27        -6.4013   -4.1620    0.6338 H         1 <0>         0.0618
     60 H28        -7.9597   -2.5700   -0.4566 H         1 <0>         0.0618
     61 H29        -4.2075    3.0924   -2.4670 H         1 <0>         0.2143
@<TRIPOS>BOND
     1    1   16 1
     2    1   56 1
     3    2   12 2
     4    3   16 2
     5    4    9 1
     6    4   11 1
     7    4   12 am
     8    5    7 1
     9    5   31 2
    10    6    8 2
    11    6   31 1
    12    7    8 1
    13    7   61 1
    14    9   10 1
    15    9   16 1
    16    9   33 1
    17   10   13 1
    18   10   14 1
    19   10   34 1
    20   11   17 1
    21   11   35 1
    22   11   36 1
    23   12   15 1
    24   13   37 1
    25   13   38 1
    26   13   39 1
    27   14   40 1
    28   14   41 1
    29   14   42 1
    30   15   18 1
    31   15   43 1
    32   15   44 1
    33   17   20 ar
    34   17   21 ar
    35   18   19 1
    36   18   45 1
    37   18   46 1
    38   19   25 1
    39   19   47 1
    40   19   48 1
    41   20   23 ar
    42   20   49 1
    43   21   24 ar
    44   21   50 1
    45   22   23 ar
    46   22   24 ar
    47   22   26 1
    48   23   51 1
    49   24   52 1
    50   25   53 1
    51   25   54 1
    52   25   55 1
    53   26   27 ar
    54   26   28 ar
    55   27   29 ar
    56   27   31 1
    57   28   30 ar
    58   28   57 1
    59   29   32 ar
    60   29   58 1
    61   30   32 ar
    62   30   59 1
    63   32   60 1
