@<TRIPOS>MOLECULE
DB00856
   24    24     0     0     0
SMALL
USER_CHARGES

@<TRIPOS>ATOM
      1 Cl1        -5.6225   -0.6684    0.4807 Cl        1 <0>        -0.0835
      2 O1         -0.0108    0.7280   -0.5366 O.3       1 <0>        -0.4893
      3 O2          2.7433    1.1507   -0.9909 O.3       1 <0>        -0.3861
      4 O3          4.5611    0.1536    0.8502 O.3       1 <0>        -0.3923
      5 C1          2.2808    0.4554    0.1693 C.3       1 <0>         0.1120
      6 C2          0.9666   -0.2395   -0.1681 C.3       1 <0>         0.1175
      7 C3          3.3530   -0.5475    0.5748 C.3       1 <0>         0.0733
      8 C4         -1.3196    0.4023   -0.2992 C.ar      1 <0>         0.1207
      9 C5         -1.7153   -0.9302   -0.3348 C.ar      1 <0>        -0.0186
     10 C6         -2.2409    1.4075   -0.0247 C.ar      1 <0>        -0.0186
     11 C7         -3.0484   -1.2619   -0.0933 C.ar      1 <0>        -0.0399
     12 C8         -3.5739    1.0758    0.2170 C.ar      1 <0>        -0.0399
     13 C9         -3.9779   -0.2590    0.1828 C.ar      1 <0>         0.0412
     14 H1          2.1371    1.2141    0.9457 H         1 <0>         0.0650
     15 H2          0.6542   -0.8093    0.7167 H         1 <0>         0.0723
     16 H3          1.1085   -0.9212   -1.0155 H         1 <0>         0.0723
     17 H4          3.5621   -1.2649   -0.2256 H         1 <0>         0.0584
     18 H5          3.0625   -1.0977    1.4747 H         1 <0>         0.0584
     19 H6         -1.0308   -1.7385   -0.5732 H         1 <0>         0.0654
     20 H7         -1.9303    2.4481    0.0029 H         1 <0>         0.0654
     21 H8          2.8746    0.4981   -1.6999 H         1 <0>         0.2100
     22 H9         -3.3507   -2.3055   -0.1292 H         1 <0>         0.0633
     23 H10        -4.2870    1.8679    0.4307 H         1 <0>         0.0633
     24 H11         4.8044    0.6422    0.0454 H         1 <0>         0.2095
@<TRIPOS>BOND
     1    1   13 1
     2    2    6 1
     3    2    8 1
     4    3    5 1
     5    3   21 1
     6    4    7 1
     7    4   24 1
     8    5    6 1
     9    5    7 1
    10    5   14 1
    11    6   15 1
    12    6   16 1
    13    7   17 1
    14    7   18 1
    15    8    9 ar
    16    8   10 ar
    17    9   11 ar
    18    9   19 1
    19   10   12 ar
    20   10   20 1
    21   11   13 ar
    22   11   22 1
    23   12   13 ar
    24   12   23 1
