@<TRIPOS>MOLECULE
DB00831
   52    55     0     0     0
SMALL
USER_CHARGES

@<TRIPOS>ATOM
      1 S1          2.2552    2.7083   -1.4188 S.3       1 <0>        -0.0857
      2 F1          7.0546   -1.7962   -0.1017 F         1 <0>        -0.1659
      3 F2          6.0352   -1.8294    1.8124 F         1 <0>        -0.1659
      4 F3          5.3066   -3.0600    0.1743 F         1 <0>        -0.1659
      5 N1         -1.5948   -0.9294   -0.5284 N.3       1 <0>        -0.2999
      6 N2         -4.4829   -1.0609   -0.5214 N.3       1 <0>        -0.3029
      7 N3          1.4259    0.5193    0.6271 N.pl3     1 <0>        -0.2983
      8 C1         -2.3061   -2.0267    0.1385 C.3       1 <0>         0.0117
      9 C2         -2.3836   -0.4183   -1.6562 C.3       1 <0>         0.0117
     10 C3         -0.2723   -1.3633   -0.9744 C.3       1 <0>         0.0004
     11 C4         -3.6934   -1.5726    0.6057 C.3       1 <0>         0.0114
     12 C5         -3.7714    0.0352   -1.1901 C.3       1 <0>         0.0114
     13 C6          0.6223   -1.7724    0.1997 C.3       1 <0>        -0.0240
     14 C7          0.8412   -0.6783    1.2440 C.3       1 <0>         0.0185
     15 C8         -5.8044   -0.6255   -0.0740 C.3       1 <0>        -0.0127
     16 C9          2.7416    0.4108    0.1096 C.ar      1 <0>         0.0484
     17 C10         0.6562    1.7097    0.6544 C.ar      1 <0>         0.0479
     18 C11         3.2414    1.3563   -0.8075 C.ar      1 <0>         0.0341
     19 C12         0.9495    2.7840   -0.2088 C.ar      1 <0>         0.0341
     20 C13         3.6203   -0.6192    0.5110 C.ar      1 <0>        -0.0276
     21 C14        -0.4093    1.8907    1.5632 C.ar      1 <0>        -0.0393
     22 C15         4.9212   -0.7194    0.0102 C.ar      1 <0>         0.0566
     23 C16         4.5496    1.2479   -1.3121 C.ar      1 <0>        -0.0457
     24 C17         0.1873    3.9652   -0.1727 C.ar      1 <0>        -0.0462
     25 C18         5.3853    0.2134   -0.9049 C.ar      1 <0>        -0.0490
     26 C19        -1.1605    3.0687    1.5982 C.ar      1 <0>        -0.0599
     27 C20        -0.8640    4.1057    0.7271 C.ar      1 <0>        -0.0606
     28 C21         5.8123   -1.8261    0.4651 C.3       1 <0>         0.4175
     29 H1         -1.7803   -2.3601    1.0381 H         1 <0>         0.0439
     30 H2         -2.4056   -2.8945   -0.5274 H         1 <0>         0.0439
     31 H3         -2.4878   -1.1811   -2.4396 H         1 <0>         0.0439
     32 H4         -1.8740    0.4435   -2.1044 H         1 <0>         0.0439
     33 H5         -0.3536   -2.2091   -1.6703 H         1 <0>         0.0427
     34 H6          0.2175   -0.5552   -1.5312 H         1 <0>         0.0427
     35 H7         -4.2049   -2.4322    1.0554 H         1 <0>         0.0439
     36 H8         -3.5875   -0.8088    1.3883 H         1 <0>         0.0439
     37 H9         -3.6705    0.9017   -0.5222 H         1 <0>         0.0439
     38 H10        -4.3395    0.3646   -2.0685 H         1 <0>         0.0439
     39 H11         0.2395   -2.6708    0.6966 H         1 <0>         0.0293
     40 H12         1.5764   -2.0996   -0.2283 H         1 <0>         0.0293
     41 H13         1.4677   -1.0411    2.0676 H         1 <0>         0.0468
     42 H14        -0.1292   -0.5323    1.7174 H         1 <0>         0.0468
     43 H15        -6.4058   -0.2870   -0.9250 H         1 <0>         0.0391
     44 H16        -5.7476    0.1911    0.6547 H         1 <0>         0.0391
     45 H17        -6.3489   -1.4589    0.3837 H         1 <0>         0.0391
     46 H18         3.3229   -1.3664    1.2415 H         1 <0>         0.0642
     47 H19        -0.6700    1.1613    2.3224 H         1 <0>         0.0636
     48 H20         4.9321    1.9713   -2.0295 H         1 <0>         0.0629
     49 H21         0.4061    4.7909   -0.8469 H         1 <0>         0.0629
     50 H22         6.3914    0.1563   -1.3094 H         1 <0>         0.0623
     51 H23        -1.9677    3.1759    2.3170 H         1 <0>         0.0618
     52 H24        -1.4439    5.0231    0.7508 H         1 <0>         0.0618
@<TRIPOS>BOND
     1    1   18 1
     2    1   19 1
     3    2   28 1
     4    3   28 1
     5    4   28 1
     6    5    8 1
     7    5    9 1
     8    5   10 1
     9    6   11 1
    10    6   12 1
    11    6   15 1
    12    7   14 1
    13    7   16 1
    14    7   17 1
    15    8   11 1
    16    8   29 1
    17    8   30 1
    18    9   12 1
    19    9   31 1
    20    9   32 1
    21   10   13 1
    22   10   33 1
    23   10   34 1
    24   11   35 1
    25   11   36 1
    26   12   37 1
    27   12   38 1
    28   13   14 1
    29   13   39 1
    30   13   40 1
    31   14   41 1
    32   14   42 1
    33   15   43 1
    34   15   44 1
    35   15   45 1
    36   16   18 ar
    37   16   20 ar
    38   17   19 ar
    39   17   21 ar
    40   18   23 ar
    41   19   24 ar
    42   20   22 ar
    43   20   46 1
    44   21   26 ar
    45   21   47 1
    46   22   25 ar
    47   22   28 1
    48   23   25 ar
    49   23   48 1
    50   24   27 ar
    51   24   49 1
    52   25   50 1
    53   26   27 ar
    54   26   51 1
    55   27   52 1
