@<TRIPOS>MOLECULE
DB00478
   34    36     0     0     0
SMALL
USER_CHARGES

@<TRIPOS>ATOM
      1 N1          2.6516   -1.3635    0.4016 N.3       1 <0>        -0.3270
      2 C1          0.6416   -0.1124   -0.1850 C.3       1 <0>        -0.0136
      3 C2         -1.2187    0.2669    1.4942 C.3       1 <0>        -0.0400
      4 C3         -1.4389    1.1759   -0.8459 C.3       1 <0>        -0.0400
      5 C4         -1.5793   -1.3075   -0.4403 C.3       1 <0>        -0.0400
      6 C5          0.3034    0.1494    1.3018 C.3       1 <0>        -0.0431
      7 C6          0.0838    1.0560   -1.0320 C.3       1 <0>        -0.0431
      8 C7         -0.0561   -1.4204   -0.6277 C.3       1 <0>        -0.0431
      9 C8         -1.7489    1.4295    0.6388 C.3       1 <0>        -0.0473
     10 C9         -1.8884   -1.0414    1.0422 C.3       1 <0>        -0.0473
     11 C10        -2.1076   -0.1370   -1.2861 C.3       1 <0>        -0.0473
     12 C11         2.1566   -0.2286   -0.3728 C.3       1 <0>         0.0077
     13 C12         2.8565    1.0557    0.0556 C.3       1 <0>        -0.0494
     14 H1         -1.4455    0.4520    2.5503 H         1 <0>         0.0301
     15 H2         -1.8215    2.0057   -1.4506 H         1 <0>         0.0301
     16 H3         -2.0612   -2.2391   -0.7574 H         1 <0>         0.0301
     17 H4          0.7493    1.0820    1.6636 H         1 <0>         0.0274
     18 H5          0.6778   -0.6549    1.9468 H         1 <0>         0.0274
     19 H6          0.3166    0.9036   -2.0936 H         1 <0>         0.0274
     20 H7          0.5213    2.0171   -0.7432 H         1 <0>         0.0274
     21 H8          0.2855   -2.2836   -0.0449 H         1 <0>         0.0274
     22 H9          0.1710   -1.6363   -1.6797 H         1 <0>         0.0274
     23 H10        -2.8313    1.5358    0.7819 H         1 <0>         0.0271
     24 H11        -1.2915    2.3726    0.9620 H         1 <0>         0.0271
     25 H12        -1.5307   -1.8772    1.6560 H         1 <0>         0.0271
     26 H13        -2.9732   -0.9780    1.1927 H         1 <0>         0.0271
     27 H14        -3.1962   -0.0576   -1.1769 H         1 <0>         0.0271
     28 H15        -1.9068   -0.3219   -2.3486 H         1 <0>         0.0271
     29 H16         2.3913   -0.4074   -1.4296 H         1 <0>         0.0461
     30 H17         2.5634    1.9239   -0.5391 H         1 <0>         0.0245
     31 H18         2.7370    1.2924    1.1163 H         1 <0>         0.0245
     32 H19         3.9377    0.9482   -0.1042 H         1 <0>         0.0245
     33 H20         3.6712   -1.3619    0.3991 H         1 <0>         0.1185
     34 H21         2.3805   -2.2380   -0.0451 H         1 <0>         0.1185
@<TRIPOS>BOND
     1    1   12 1
     2    1   33 1
     3    1   34 1
     4    2    6 1
     5    2    7 1
     6    2    8 1
     7    2   12 1
     8    3    6 1
     9    3    9 1
    10    3   10 1
    11    3   14 1
    12    4    7 1
    13    4    9 1
    14    4   11 1
    15    4   15 1
    16    5    8 1
    17    5   10 1
    18    5   11 1
    19    5   16 1
    20    6   17 1
    21    6   18 1
    22    7   19 1
    23    7   20 1
    24    8   21 1
    25    8   22 1
    26    9   23 1
    27    9   24 1
    28   10   25 1
    29   10   26 1
    30   11   27 1
    31   11   28 1
    32   12   13 1
    33   12   29 1
    34   13   30 1
    35   13   31 1
    36   13   32 1
