@<TRIPOS>MOLECULE
DB00823
   60    63     0     0     0
SMALL
USER_CHARGES

@<TRIPOS>ATOM
      1 O1         -4.8782   -0.8273    0.2834 O.3       1 <0>        -0.4447
      2 O2          6.0825    0.3657   -0.2904 O.3       1 <0>        -0.4574
      3 O3         -6.5263    0.2370   -0.9365 O.2       1 <0>        -0.2511
      4 O4          6.9664   -1.4625   -1.3919 O.2       1 <0>        -0.2511
      5 C1         -2.4661   -0.3222    0.2304 C.3       1 <0>         0.0223
      6 C2         -1.7206    0.9491   -0.2342 C.3       1 <0>        -0.0278
      7 C3         -0.2920    1.0334    0.3112 C.3       1 <0>        -0.0339
      8 C4          0.5101   -0.2094   -0.1782 C.3       1 <0>        -0.0314
      9 C5         -3.8789   -0.0586   -0.3731 C.3       1 <0>         0.1784
     10 C6         -1.6959   -1.5474   -0.2956 C.3       1 <0>        -0.0425
     11 C7         -2.6972    2.0759    0.0940 C.3       1 <0>        -0.0447
     12 C8         -0.2216   -1.5355    0.1486 C.3       1 <0>        -0.0487
     13 C9          1.9677   -0.1824    0.3703 C.3       1 <0>        -0.0166
     14 C10        -4.0949    1.4540   -0.1038 C.3       1 <0>        -0.0005
     15 C11         0.4149    2.3230   -0.1294 C.3       1 <0>        -0.0460
     16 C12        -2.5820   -0.4464    1.7788 C.3       1 <0>        -0.0547
     17 C13         2.6306    1.1579    0.0803 C.2       1 <0>        -0.0667
     18 C14         1.8320    2.3860    0.4321 C.3       1 <0>        -0.0311
     19 C15         2.7853   -1.3751   -0.1757 C.3       1 <0>        -0.0426
     20 C16         4.2830   -1.1729    0.0074 C.3       1 <0>        -0.0114
     21 C17        -3.9611   -0.3330   -1.8214 C.1       1 <0>        -0.0576
     22 C18         3.8685    1.2630   -0.4353 C.2       1 <0>        -0.0445
     23 C19         4.7522    0.0853   -0.7186 C.3       1 <0>         0.1215
     24 C20        -6.1687   -0.5771   -0.0960 C.2       1 <0>         0.3054
     25 C21        -4.0280   -0.5568   -2.9988 C.1       1 <0>        -0.1152
     26 C22        -7.1075   -1.4555    0.6743 C.3       1 <0>         0.0333
     27 C23         6.9927   -0.6328   -0.4930 C.2       1 <0>         0.3045
     28 C24         8.0553   -0.5720    0.5620 C.3       1 <0>         0.0333
     29 H1         -1.6313    0.9283   -1.3322 H         1 <0>         0.0310
     30 H2         -0.3167    1.0348    1.4080 H         1 <0>         0.0307
     31 H3          0.5688   -0.1479   -1.2763 H         1 <0>         0.0309
     32 H4         -1.7036   -1.5735   -1.3913 H         1 <0>         0.0272
     33 H5         -2.1744   -2.4758    0.0391 H         1 <0>         0.0272
     34 H6         -2.5526    2.9412   -0.5614 H         1 <0>         0.0270
     35 H7         -2.5785    2.4215    1.1271 H         1 <0>         0.0270
     36 H8         -0.1516   -1.7418    1.2226 H         1 <0>         0.0268
     37 H9          0.2793   -2.3709   -0.3542 H         1 <0>         0.0268
     38 H10         1.9261   -0.2822    1.4646 H         1 <0>         0.0348
     39 H11        -4.6969    1.6297    0.7962 H         1 <0>         0.0314
     40 H12        -4.6059    1.9623   -0.9307 H         1 <0>         0.0314
     41 H13        -0.1409    3.1999    0.2219 H         1 <0>         0.0271
     42 H14         0.4460    2.3820   -1.2250 H         1 <0>         0.0271
     43 H15        -3.0955   -1.3757    2.0526 H         1 <0>         0.0237
     44 H16        -1.6112   -0.4662    2.2801 H         1 <0>         0.0237
     45 H17        -3.1485    0.3772    2.2244 H         1 <0>         0.0237
     46 H18         1.7868    2.4700    1.5254 H         1 <0>         0.0310
     47 H19         2.3186    3.2986    0.0677 H         1 <0>         0.0310
     48 H20         2.5742   -1.5239   -1.2428 H         1 <0>         0.0272
     49 H21         2.4874   -2.2958    0.3395 H         1 <0>         0.0272
     50 H22         4.5225   -1.1126    1.0779 H         1 <0>         0.0304
     51 H23         4.7977   -2.0653   -0.3647 H         1 <0>         0.0304
     52 H24         4.2825    2.2464   -0.6447 H         1 <0>         0.0608
     53 H25         4.7582   -0.0714   -1.8051 H         1 <0>         0.0779
     54 H26        -4.0870   -0.7553   -4.0433 H         1 <0>         0.1229
     55 H27        -7.0139   -1.2489    1.7433 H         1 <0>         0.0342
     56 H28        -6.8884   -2.5052    0.4639 H         1 <0>         0.0342
     57 H29        -8.1359   -1.2451    0.3671 H         1 <0>         0.0342
     58 H30         7.6056   -0.7097    1.5485 H         1 <0>         0.0342
     59 H31         8.5780    0.3861    0.5069 H         1 <0>         0.0342
     60 H32         8.7794   -1.3744    0.3942 H         1 <0>         0.0342
@<TRIPOS>BOND
     1    1    9 1
     2    1   24 1
     3    2   23 1
     4    2   27 1
     5    3   24 2
     6    4   27 2
     7    5    6 1
     8    5    9 1
     9    5   10 1
    10    5   16 1
    11    6    7 1
    12    6   11 1
    13    6   29 1
    14    7    8 1
    15    7   15 1
    16    7   30 1
    17    8   12 1
    18    8   13 1
    19    8   31 1
    20    9   14 1
    21    9   21 1
    22   10   12 1
    23   10   32 1
    24   10   33 1
    25   11   14 1
    26   11   34 1
    27   11   35 1
    28   12   36 1
    29   12   37 1
    30   13   17 1
    31   13   19 1
    32   13   38 1
    33   14   39 1
    34   14   40 1
    35   15   18 1
    36   15   41 1
    37   15   42 1
    38   16   43 1
    39   16   44 1
    40   16   45 1
    41   17   18 1
    42   17   22 2
    43   18   46 1
    44   18   47 1
    45   19   20 1
    46   19   48 1
    47   19   49 1
    48   20   23 1
    49   20   50 1
    50   20   51 1
    51   21   25 3
    52   22   23 1
    53   22   52 1
    54   23   53 1
    55   24   26 1
    56   25   54 1
    57   26   55 1
    58   26   56 1
    59   26   57 1
    60   27   28 1
    61   28   58 1
    62   28   59 1
    63   28   60 1
