@<TRIPOS>MOLECULE
DB00852
   27    27     0     0     0
SMALL
USER_CHARGES

@<TRIPOS>ATOM
      1 O1          0.0559    2.0408    1.5082 O.3       1 <0>        -0.3856
      2 N1          1.7342   -0.9814    0.1429 N.3       1 <0>        -0.3138
      3 C1          1.5207    0.4514    0.3818 C.3       1 <0>         0.0347
      4 C2          0.2477    0.6499    1.2353 C.3       1 <0>         0.0952
      5 C3         -1.0176    0.1576    0.5660 C.ar      1 <0>        -0.0177
      6 C4          1.4320    1.1487   -0.9771 C.3       1 <0>        -0.0470
      7 C5         -1.7437    1.0278   -0.2282 C.ar      1 <0>        -0.0561
      8 C6         -1.4199   -1.1519    0.7625 C.ar      1 <0>        -0.0561
      9 C7          2.9591   -1.1956   -0.6079 C.3       1 <0>        -0.0155
     10 C8         -2.9096    0.5742   -0.8452 C.ar      1 <0>        -0.0614
     11 C9         -2.5857   -1.6055    0.1453 C.ar      1 <0>        -0.0614
     12 C10        -3.3305   -0.7423   -0.6586 C.ar      1 <0>        -0.0617
     13 H1          2.3645    0.8823    0.9370 H         1 <0>         0.0486
     14 H2          0.3732    0.1568    2.2081 H         1 <0>         0.0659
     15 H3          1.0769    2.1793   -0.8668 H         1 <0>         0.0246
     16 H4          2.4138    1.2266   -1.4572 H         1 <0>         0.0246
     17 H5          0.7589    0.6366   -1.6740 H         1 <0>         0.0246
     18 H6          1.8055   -1.4581    1.0420 H         1 <0>         0.1220
     19 H7         -1.4376    2.0548   -0.4015 H         1 <0>         0.0621
     20 H8         -0.8513   -1.8311    1.3910 H         1 <0>         0.0621
     21 H9         -0.6749    2.1209    2.1453 H         1 <0>         0.2103
     22 H10         3.8138   -0.6652   -0.1748 H         1 <0>         0.0388
     23 H11         2.8547   -0.9320   -1.6647 H         1 <0>         0.0388
     24 H12         3.2006   -2.2640   -0.5879 H         1 <0>         0.0388
     25 H13        -3.4884    1.2453   -1.4732 H         1 <0>         0.0618
     26 H14        -2.9143   -2.6303    0.2914 H         1 <0>         0.0618
     27 H15        -4.2380   -1.0957   -1.1395 H         1 <0>         0.0618
@<TRIPOS>BOND
     1    1    4 1
     2    1   21 1
     3    2    3 1
     4    2    9 1
     5    2   18 1
     6    3    4 1
     7    3    6 1
     8    3   13 1
     9    4    5 1
    10    4   14 1
    11    5    7 ar
    12    5    8 ar
    13    6   15 1
    14    6   16 1
    15    6   17 1
    16    7   10 ar
    17    7   19 1
    18    8   11 ar
    19    8   20 1
    20    9   22 1
    21    9   23 1
    22    9   24 1
    23   10   12 ar
    24   10   25 1
    25   11   12 ar
    26   11   26 1
    27   12   27 1
