@<TRIPOS>MOLECULE
DB00533
   36    38     0     0     0
SMALL
USER_CHARGES

@<TRIPOS>ATOM
      1 S1         -4.5174    0.0914    0.0205 S.o2      1 <0>        -0.0059
      2 O1          3.0577    3.1922   -0.0420 O.3       1 <0>        -0.4563
      3 O2          4.6813    1.5744   -0.0906 O.2       1 <0>        -0.2449
      4 O3         -5.0970    0.4990    1.2924 O.2       1 <0>        -0.1696
      5 O4         -5.1376    0.5184   -1.2263 O.2       1 <0>        -0.1696
      6 C1          1.2608    1.7618   -0.0029 C.2       1 <0>         0.0114
      7 C2         -0.1518    1.3549    0.0028 C.ar      1 <0>        -0.0177
      8 C3          2.3522    0.9852   -0.0265 C.2       1 <0>         0.0731
      9 C4          1.6305    3.1969    0.0279 C.3       1 <0>         0.1192
     10 C5         -2.8403    0.5769    0.0135 C.ar      1 <0>         0.0879
     11 C6          2.4664   -0.4731   -0.0154 C.ar      1 <0>        -0.0107
     12 C7         -0.8195    1.1380    1.2132 C.ar      1 <0>        -0.0524
     13 C8         -0.8411    1.1790   -1.2023 C.ar      1 <0>        -0.0524
     14 C9          3.5078    1.9054   -0.0599 C.2       1 <0>         0.3405
     15 C10        -2.1593    0.7502    1.2186 C.ar      1 <0>        -0.0363
     16 C11        -2.1811    0.7913   -1.1971 C.ar      1 <0>        -0.0363
     17 C12         2.4862   -1.1803   -1.2177 C.ar      1 <0>        -0.0538
     18 C13         2.5554   -1.1566    1.1973 C.ar      1 <0>        -0.0538
     19 C14        -4.4625   -1.6862   -0.0104 C.3       1 <0>         0.0596
     20 C15         2.5948   -2.5707   -1.2073 C.ar      1 <0>        -0.0612
     21 C16         2.6642   -2.5473    1.2076 C.ar      1 <0>        -0.0612
     22 C17         2.6839   -3.2542    0.0053 C.ar      1 <0>        -0.0617
     23 H1          1.2380    3.7465   -0.8332 H         1 <0>         0.0749
     24 H2          1.3206    3.6895    0.9546 H         1 <0>         0.0749
     25 H3         -0.3022    1.2668    2.1613 H         1 <0>         0.0624
     26 H4         -0.3409    1.3402   -2.1545 H         1 <0>         0.0624
     27 H5         -2.6504    0.5817    2.1729 H         1 <0>         0.0637
     28 H6         -2.6903    0.6556   -2.1470 H         1 <0>         0.0637
     29 H7          2.4175   -0.6615   -2.1709 H         1 <0>         0.0624
     30 H8          2.5411   -0.6195    2.1426 H         1 <0>         0.0624
     31 H9         -3.9327   -2.0404    0.8758 H         1 <0>         0.0468
     32 H10        -5.4897   -2.0571   -0.0028 H         1 <0>         0.0468
     33 H11        -3.9562   -2.0103   -0.9215 H         1 <0>         0.0468
     34 H12         2.6100   -3.1214   -2.1433 H         1 <0>         0.0618
     35 H13         2.7333   -3.0797    2.1518 H         1 <0>         0.0618
     36 H14         2.7683   -4.3369    0.0135 H         1 <0>         0.0618
@<TRIPOS>BOND
     1    1    4 2
     2    1    5 2
     3    1   10 1
     4    1   19 1
     5    2    9 1
     6    2   14 1
     7    3   14 2
     8    6    7 1
     9    6    8 2
    10    6    9 1
    11    7   12 ar
    12    7   13 ar
    13    8   11 1
    14    8   14 1
    15    9   23 1
    16    9   24 1
    17   10   15 ar
    18   10   16 ar
    19   11   17 ar
    20   11   18 ar
    21   12   15 ar
    22   12   25 1
    23   13   16 ar
    24   13   26 1
    25   15   27 1
    26   16   28 1
    27   17   20 ar
    28   17   29 1
    29   18   21 ar
    30   18   30 1
    31   19   31 1
    32   19   32 1
    33   19   33 1
    34   20   22 ar
    35   20   34 1
    36   21   22 ar
    37   21   35 1
    38   22   36 1
