@<TRIPOS>MOLECULE
DB00779
   29    30     0     0     0
SMALL
USER_CHARGES

@<TRIPOS>ATOM
      1 O1         -1.9158    2.8038   -0.3878 O.2       1 <0>        -0.2862
      2 O2         -4.2780    1.9014    0.3684 O.3       1 <0>        -0.4770
      3 O3         -4.6571   -0.2252   -0.4199 O.2       1 <0>        -0.2449
      4 N1         -0.5968   -0.9737    0.3359 N.pl3     1 <0>        -0.3312
      5 N2          1.7028   -0.2267    0.2532 N.ar      1 <0>        -0.2341
      6 C1          0.3734    0.0489    0.1710 C.ar      1 <0>         0.1446
      7 C2         -0.0657    1.3602   -0.0803 C.ar      1 <0>         0.0650
      8 C3         -0.0863   -2.3140    0.5949 C.3       1 <0>         0.0218
      9 C4         -1.9413   -0.6759    0.2499 C.2       1 <0>         0.0242
     10 C5         -2.4591    0.5353    0.0152 C.2       1 <0>         0.1221
     11 C6         -1.5163    1.6668   -0.1709 C.2       1 <0>         0.2049
     12 C7          0.8677    2.3859   -0.2464 C.ar      1 <0>        -0.0457
     13 C8          2.5833    0.7871    0.0879 C.ar      1 <0>         0.0406
     14 C9          0.1393   -3.0753   -0.7004 C.3       1 <0>        -0.0470
     15 C10         2.2210    2.0965   -0.1610 C.ar      1 <0>        -0.0398
     16 C11        -3.9142    0.6738   -0.0453 C.2       1 <0>         0.3420
     17 C12         4.0300    0.4347    0.1870 C.3       1 <0>        -0.0223
     18 H1          0.8303   -2.3038    1.1972 H         1 <0>         0.0489
     19 H2         -0.8137   -2.8716    1.1997 H         1 <0>         0.0489
     20 H3         -2.5716   -1.5474    0.3970 H         1 <0>         0.0819
     21 H4          0.5573    3.4084   -0.4415 H         1 <0>         0.0626
     22 H5         -0.7867   -3.1528   -1.2799 H         1 <0>         0.0247
     23 H6          0.8862   -2.5797   -1.3291 H         1 <0>         0.0247
     24 H7          0.4931   -4.0891   -0.4883 H         1 <0>         0.0247
     25 H8          2.9605    2.8797   -0.2873 H         1 <0>         0.0636
     26 H9          4.5441    0.6690   -0.7506 H         1 <0>         0.0292
     27 H10         4.5025    0.9903    1.0032 H         1 <0>         0.0292
     28 H11         4.1617   -0.6341    0.3859 H         1 <0>         0.0292
     29 H12        -5.2505    2.0277    0.3422 H         1 <0>         0.2954
@<TRIPOS>BOND
     1    1   11 2
     2    2   16 1
     3    2   29 1
     4    3   16 2
     5    4    6 1
     6    4    8 1
     7    4    9 2
     8    5    6 ar
     9    5   13 ar
    10    6    7 ar
    11    7   11 1
    12    7   12 ar
    13    8   14 1
    14    8   18 1
    15    8   19 1
    16    9   10 1
    17    9   20 1
    18   10   11 1
    19   10   16 1
    20   12   15 ar
    21   12   21 1
    22   13   15 ar
    23   13   17 1
    24   14   22 1
    25   14   23 1
    26   14   24 1
    27   15   25 1
    28   17   26 1
    29   17   27 1
    30   17   28 1
