@<TRIPOS>MOLECULE
DB00456
   42    44     0     0     0
SMALL
USER_CHARGES

@<TRIPOS>ATOM
      1 S1          0.4342   -1.8170   -1.2177 S.3       1 <0>        -0.1310
      2 S2         -6.8555    0.1498   -0.4498 S.3       1 <0>        -0.1011
      3 O1         -1.3211    0.3651    2.4931 O.2       1 <0>        -0.2731
      4 O2          4.6333    0.1481   -0.4637 O.3       1 <0>        -0.4603
      5 O3          2.2823    1.4562    2.5863 O.3       1 <0>        -0.4763
      6 O4         -3.9300   -1.2189    1.7515 O.2       1 <0>        -0.2754
      7 O5          0.9057    2.6669    1.2192 O.2       1 <0>        -0.2437
      8 O6          5.9529    1.9394   -1.0859 O.2       1 <0>        -0.2512
      9 N1          0.3624   -0.4484    1.0563 N.am      1 <0>        -0.2489
     10 N2         -2.2870   -1.7376    0.1968 N.am      1 <0>        -0.3015
     11 C1          0.2693   -1.8171    0.5821 C.3       1 <0>         0.1042
     12 C2         -1.1710   -1.8107    1.1394 C.3       1 <0>         0.1283
     13 C3         -0.7905   -0.4362    1.7600 C.2       1 <0>         0.2440
     14 C4          1.3901    0.3864    0.7552 C.2       1 <0>         0.1252
     15 C5          2.2592    0.1062   -0.2450 C.2       1 <0>         0.0056
     16 C6          2.1100   -1.0955   -1.1754 C.3       1 <0>         0.0220
     17 C7          3.4707    0.9400   -0.5866 C.3       1 <0>         0.1166
     18 C8         -3.5904   -1.4435    0.5910 C.2       1 <0>         0.2185
     19 C9          1.4781    1.6390    1.5206 C.2       1 <0>         0.3515
     20 C10        -4.5784   -1.4049   -0.5577 C.3       1 <0>         0.0553
     21 C11        -5.1755   -0.0282   -0.6458 C.2       1 <0>        -0.0015
     22 C12         5.8224    0.7719   -0.7440 C.2       1 <0>         0.3043
     23 C13        -4.5265    1.1486   -0.8722 C.2       1 <0>        -0.0511
     24 C14        -5.4356    2.2457   -0.8867 C.2       1 <0>        -0.0545
     25 C15        -6.7352    1.8437   -0.6698 C.2       1 <0>        -0.0241
     26 C16         6.9633   -0.1848   -0.5720 C.3       1 <0>         0.0332
     27 H1          0.9468   -2.4987    1.1100 H         1 <0>         0.0644
     28 H2         -1.3408   -2.5863    1.8956 H         1 <0>         0.0622
     29 H3          2.8207   -1.8765   -0.8840 H         1 <0>         0.0424
     30 H4          2.3404   -0.7999   -2.2044 H         1 <0>         0.0424
     31 H5         -2.1134   -1.9068   -0.7908 H         1 <0>         0.1495
     32 H6          3.3765    1.3045   -1.6172 H         1 <0>         0.0746
     33 H7          3.5636    1.8140    0.0665 H         1 <0>         0.0746
     34 H8         -5.3309   -2.1803   -0.3735 H         1 <0>         0.0412
     35 H9         -4.0915   -1.6484   -1.5087 H         1 <0>         0.0412
     36 H10         2.3704    2.2704    3.1263 H         1 <0>         0.2954
     37 H11        -3.4583    1.2381   -1.0225 H         1 <0>         0.0626
     38 H12        -5.1508    3.2772   -1.0482 H         1 <0>         0.0623
     39 H13        -7.6196    2.4637   -0.6301 H         1 <0>         0.0693
     40 H14         6.8462   -1.0270   -1.2585 H         1 <0>         0.0342
     41 H15         7.0004   -0.5336    0.4630 H         1 <0>         0.0342
     42 H16         7.9029    0.3253   -0.8025 H         1 <0>         0.0342
@<TRIPOS>BOND
     1    1   11 1
     2    1   16 1
     3    2   21 1
     4    2   25 1
     5    3   13 2
     6    4   17 1
     7    4   22 1
     8    5   19 1
     9    5   36 1
    10    6   18 2
    11    7   19 2
    12    8   22 2
    13    9   11 1
    14    9   13 am
    15    9   14 1
    16   10   12 1
    17   10   18 am
    18   10   31 1
    19   11   12 1
    20   11   27 1
    21   12   13 1
    22   12   28 1
    23   14   15 2
    24   14   19 1
    25   15   16 1
    26   15   17 1
    27   16   29 1
    28   16   30 1
    29   17   32 1
    30   17   33 1
    31   18   20 1
    32   20   21 1
    33   20   34 1
    34   20   35 1
    35   21   23 2
    36   22   26 1
    37   23   24 1
    38   23   37 1
    39   24   25 2
    40   24   38 1
    41   25   39 1
    42   26   40 1
    43   26   41 1
    44   26   42 1
