@<TRIPOS>MOLECULE
DB00744
   28    29     0     0     0
SMALL
USER_CHARGES

@<TRIPOS>ATOM
      1 S1         -0.5470   -1.1003   -1.3139 S.3       1 <0>        -0.0912
      2 O1          2.1942    0.1733    1.4905 O.3       1 <0>        -0.2907
      3 O2          3.7295   -1.4305   -1.3009 O.2       1 <0>        -0.2507
      4 N1          2.4940   -0.1995    0.1867 N.am      1 <0>        -0.1601
      5 N2          4.1201   -1.6203    0.9393 N.am      1 <0>        -0.3116
      6 C1          1.6314    0.5008   -0.7897 C.3       1 <0>         0.0826
      7 C2          0.1913    0.2438   -0.5697 C.2       1 <0>         0.0135
      8 C3         -2.0242    0.4163    0.1705 C.ar      1 <0>        -0.0105
      9 C4         -0.6987    0.9663    0.1891 C.2       1 <0>        -0.0419
     10 C5         -2.0842   -0.7322   -0.6250 C.ar      1 <0>         0.0196
     11 C6          1.9875    2.0033   -0.7601 C.3       1 <0>        -0.0394
     12 C7         -3.2108    0.8508    0.8091 C.ar      1 <0>        -0.0535
     13 C8         -3.2856   -1.4478   -0.7961 C.ar      1 <0>        -0.0474
     14 C9         -4.4040    0.1430    0.6419 C.ar      1 <0>        -0.0611
     15 C10        -4.4388   -0.9937   -0.1530 C.ar      1 <0>        -0.0607
     16 C11         3.4544   -1.0916   -0.1483 C.2       1 <0>         0.3230
     17 H1          1.9097    0.1465   -1.7910 H         1 <0>         0.0578
     18 H2         -0.4313    1.8544    0.7485 H         1 <0>         0.0632
     19 H3          1.3944    2.5591   -1.4948 H         1 <0>         0.0252
     20 H4          3.0466    2.1477   -1.0025 H         1 <0>         0.0252
     21 H5          1.8165    2.4545    0.2234 H         1 <0>         0.0252
     22 H6         -3.1993    1.7398    1.4349 H         1 <0>         0.0624
     23 H7         -3.3221   -2.3389   -1.4162 H         1 <0>         0.0629
     24 H8         -5.3077    0.4864    1.1375 H         1 <0>         0.0618
     25 H9         -5.3714   -1.5373   -0.2775 H         1 <0>         0.0618
     26 H10         1.6029   -0.5509    1.7574 H         1 <0>         0.2417
     27 H11         4.8607   -2.3036    0.8230 H         1 <0>         0.1465
     28 H12         3.8919   -1.3393    1.8869 H         1 <0>         0.1465
@<TRIPOS>BOND
     1    1    7 1
     2    1   10 1
     3    2    4 1
     4    2   26 1
     5    3   16 2
     6    4    6 1
     7    4   16 am
     8    5   16 am
     9    5   27 1
    10    5   28 1
    11    6    7 1
    12    6   11 1
    13    6   17 1
    14    7    9 2
    15    8    9 1
    16    8   10 ar
    17    8   12 ar
    18    9   18 1
    19   10   13 ar
    20   11   19 1
    21   11   20 1
    22   11   21 1
    23   12   14 ar
    24   12   22 1
    25   13   15 ar
    26   13   23 1
    27   14   15 ar
    28   14   24 1
    29   15   25 1
