@<TRIPOS>MOLECULE
DB00394
   73    76     0     0     0
SMALL
USER_CHARGES

@<TRIPOS>ATOM
      1 Cl1        -2.5661    0.1355   -2.1585 Cl        1 <0>        -0.1139
      2 O1          1.6740   -1.1229   -0.9303 O.3       1 <0>        -0.4494
      3 O2         -1.6604    2.3320    1.0869 O.3       1 <0>        -0.3900
      4 O3          3.2312   -1.3018    1.8394 O.2       1 <0>        -0.2895
      5 O4          4.3969    0.9075    0.6732 O.3       1 <0>        -0.4568
      6 O5          3.3903   -2.5959   -0.4739 O.2       1 <0>        -0.2508
      7 O6         -7.2723    1.4237   -2.9544 O.2       1 <0>        -0.2879
      8 O7          4.2321    3.1121    0.0123 O.2       1 <0>        -0.2509
      9 C1          0.0429   -0.2394    0.7047 C.3       1 <0>         0.0207
     10 C2         -1.0694   -1.2426    0.3196 C.3       1 <0>        -0.0266
     11 C3         -2.4871   -0.6771    0.5111 C.3       1 <0>        -0.0146
     12 C4         -2.6969    0.6213   -0.3664 C.3       1 <0>         0.0864
     13 C5          1.3020   -1.1269    0.4538 C.3       1 <0>         0.1821
     14 C6         -0.6657   -2.5045    1.0766 C.3       1 <0>        -0.0426
     15 C7         -0.1073    1.0028   -0.2030 C.3       1 <0>        -0.0154
     16 C8          0.8698   -2.5712    0.8671 C.3       1 <0>         0.0042
     17 C9         -1.5213    1.6386   -0.1476 C.3       1 <0>         0.0762
     18 C10        -4.1683    1.2050   -0.1502 C.3       1 <0>         0.0294
     19 C11        -3.5665   -1.7447    0.2466 C.3       1 <0>        -0.0445
     20 C12        -0.0021    0.1850    2.2002 C.3       1 <0>        -0.0551
     21 C13        -4.9793   -1.1873    0.4037 C.3       1 <0>        -0.0301
     22 C14        -5.1750    0.0718   -0.4048 C.2       1 <0>        -0.0545
     23 C15         2.5727   -0.6147    1.0601 C.2       1 <0>         0.2144
     24 C16         1.5532   -3.1725    2.0919 C.3       1 <0>        -0.0583
     25 C17        -4.4422    1.7331    1.2816 C.3       1 <0>        -0.0506
     26 C18        -4.4276    2.3971   -1.0637 C.2       1 <0>        -0.0688
     27 C19        -6.1654    0.1505   -1.3076 C.2       1 <0>        -0.0148
     28 C20         2.9904    0.7841    0.6594 C.3       1 <0>         0.1542
     29 C21        -5.4146    2.4767   -1.9617 C.2       1 <0>        -0.0180
     30 C22         2.7433   -1.9085   -1.2521 C.2       1 <0>         0.3078
     31 C23        -6.3583    1.3570   -2.1391 C.2       1 <0>         0.1787
     32 C24         3.0029   -1.7937   -2.7359 C.3       1 <0>         0.0421
     33 C25         4.1944   -2.6272   -3.1739 C.3       1 <0>        -0.0552
     34 C26         4.9021    2.1378    0.3259 C.2       1 <0>         0.3072
     35 C27         6.4110    2.1030    0.3911 C.3       1 <0>         0.0421
     36 C28         7.0312    3.4326   -0.0015 C.3       1 <0>        -0.0552
     37 H1         -0.9600   -1.4985   -0.7446 H         1 <0>         0.0311
     38 H2         -2.5971   -0.4024    1.5647 H         1 <0>         0.0322
     39 H3         -1.1528   -3.3978    0.6710 H         1 <0>         0.0272
     40 H4         -0.9344   -2.4361    2.1369 H         1 <0>         0.0272
     41 H5          0.1113    0.7404   -1.2442 H         1 <0>         0.0297
     42 H6          0.6152    1.7723    0.0844 H         1 <0>         0.0297
     43 H7          1.0176   -3.2718    0.0348 H         1 <0>         0.0341
     44 H8         -1.5633    2.4115   -0.9252 H         1 <0>         0.0611
     45 H9         -3.4471   -2.5764    0.9515 H         1 <0>         0.0272
     46 H10        -3.4478   -2.1753   -0.7550 H         1 <0>         0.0272
     47 H11         0.2894   -0.6229    2.8763 H         1 <0>         0.0237
     48 H12         0.6743    1.0215    2.3990 H         1 <0>         0.0237
     49 H13        -0.9927    0.5057    2.5270 H         1 <0>         0.0237
     50 H14        -5.6974   -1.9637    0.1124 H         1 <0>         0.0310
     51 H15        -5.1773   -0.9745    1.4610 H         1 <0>         0.0310
     52 H16         2.5829   -3.4795    1.8879 H         1 <0>         0.0234
     53 H17         1.5133   -2.5223    2.9704 H         1 <0>         0.0234
     54 H18         1.0324   -4.0959    2.3763 H         1 <0>         0.0234
     55 H19        -5.5179    1.8825    1.4476 H         1 <0>         0.0242
     56 H20        -3.9764    2.7069    1.4670 H         1 <0>         0.0242
     57 H21        -4.0958    1.0504    2.0623 H         1 <0>         0.0242
     58 H22        -3.7695    3.2577   -0.9649 H         1 <0>         0.0582
     59 H23        -0.9532    2.9974    1.1368 H         1 <0>         0.2099
     60 H24        -6.8565   -0.6699   -1.4698 H         1 <0>         0.0656
     61 H25         2.6521    1.0086   -0.3549 H         1 <0>         0.0780
     62 H26         2.5594    1.4951    1.3690 H         1 <0>         0.0780
     63 H27        -5.5490    3.3603   -2.5749 H         1 <0>         0.0653
     64 H28         3.1902   -0.7413   -2.9736 H         1 <0>         0.0375
     65 H29         2.1081   -2.1291   -3.2708 H         1 <0>         0.0375
     66 H30         5.1063   -2.3112   -2.6563 H         1 <0>         0.0235
     67 H31         4.3581   -2.5222   -4.2508 H         1 <0>         0.0235
     68 H32         4.0347   -3.6878   -2.9532 H         1 <0>         0.0235
     69 H33         6.7684    1.3216   -0.2878 H         1 <0>         0.0375
     70 H34         6.7070    1.8518    1.4151 H         1 <0>         0.0375
     71 H35         8.1226    3.3753    0.0540 H         1 <0>         0.0235
     72 H36         6.7541    3.7088   -1.0243 H         1 <0>         0.0235
     73 H37         6.6959    4.2347    0.6643 H         1 <0>         0.0235
@<TRIPOS>BOND
     1    1   12 1
     2    2   13 1
     3    2   30 1
     4    3   17 1
     5    3   59 1
     6    4   23 2
     7    5   28 1
     8    5   34 1
     9    6   30 2
    10    7   31 2
    11    8   34 2
    12    9   10 1
    13    9   13 1
    14    9   15 1
    15    9   20 1
    16   10   11 1
    17   10   14 1
    18   10   37 1
    19   11   12 1
    20   11   19 1
    21   11   38 1
    22   12   17 1
    23   12   18 1
    24   13   16 1
    25   13   23 1
    26   14   16 1
    27   14   39 1
    28   14   40 1
    29   15   17 1
    30   15   41 1
    31   15   42 1
    32   16   24 1
    33   16   43 1
    34   17   44 1
    35   18   22 1
    36   18   25 1
    37   18   26 1
    38   19   21 1
    39   19   45 1
    40   19   46 1
    41   20   47 1
    42   20   48 1
    43   20   49 1
    44   21   22 1
    45   21   50 1
    46   21   51 1
    47   22   27 2
    48   23   28 1
    49   24   52 1
    50   24   53 1
    51   24   54 1
    52   25   55 1
    53   25   56 1
    54   25   57 1
    55   26   29 2
    56   26   58 1
    57   27   31 1
    58   27   60 1
    59   28   61 1
    60   28   62 1
    61   29   31 1
    62   29   63 1
    63   30   32 1
    64   32   33 1
    65   32   64 1
    66   32   65 1
    67   33   66 1
    68   33   67 1
    69   33   68 1
    70   34   35 1
    71   35   36 1
    72   35   69 1
    73   35   70 1
    74   36   71 1
    75   36   72 1
    76   36   73 1
