@<TRIPOS>MOLECULE
DB00467
   40    42     0     0     0
SMALL
USER_CHARGES

@<TRIPOS>ATOM
      1 F1          1.5448   -2.9611   -0.7264 F         1 <0>        -0.2019
      2 O1         -3.5087   -2.8033   -0.6356 O.2       1 <0>        -0.2862
      3 O2         -5.8558   -2.0340    0.2649 O.3       1 <0>        -0.4770
      4 O3         -6.3267    0.1306   -0.3030 O.2       1 <0>        -0.2449
      5 N1          2.3282   -0.4388   -0.0256 N.pl3     1 <0>        -0.3104
      6 N2          5.0544    0.3345    0.3192 N.3       1 <0>        -0.3130
      7 N3         -2.2401    0.9183    0.4005 N.pl3     1 <0>        -0.3311
      8 N4          0.0698    0.2316    0.1854 N.ar      1 <0>        -0.2113
      9 C1          2.7445    0.9400   -0.3151 C.3       1 <0>         0.0261
     10 C2          3.1920   -1.1838    0.8969 C.3       1 <0>         0.0261
     11 C3          4.2244    0.9835   -0.6946 C.3       1 <0>         0.0117
     12 C4          4.6562   -1.0633    0.4753 C.3       1 <0>         0.0117
     13 C5          0.9641   -0.7435   -0.0976 C.ar      1 <0>         0.1592
     14 C6         -1.2561   -0.0639    0.1150 C.ar      1 <0>         0.1467
     15 C7         -1.6776   -1.3556   -0.2444 C.ar      1 <0>         0.0678
     16 C8          0.6192   -2.0317   -0.4568 C.ar      1 <0>         0.1639
     17 C9         -0.7302   -2.3412   -0.5308 C.ar      1 <0>        -0.0087
     18 C10        -1.7476    2.2401    0.7667 C.3       1 <0>         0.0218
     19 C11        -3.1242   -1.6835   -0.3230 C.2       1 <0>         0.2050
     20 C12        -3.5805    0.6012    0.3235 C.2       1 <0>         0.0242
     21 C13        -4.0822   -0.5942   -0.0080 C.2       1 <0>         0.1221
     22 C14        -1.5735    3.1244   -0.4508 C.3       1 <0>        -0.0470
     23 C15        -5.5358   -0.7583   -0.0398 C.2       1 <0>         0.3420
     24 H1          2.5601    1.5718    0.5633 H         1 <0>         0.0477
     25 H2          2.1634    1.3509   -1.1503 H         1 <0>         0.0477
     26 H3          2.9344   -2.2469    0.9445 H         1 <0>         0.0477
     27 H4          3.0603   -0.7812    1.9098 H         1 <0>         0.0477
     28 H5          4.3796    0.5017   -1.6682 H         1 <0>         0.0439
     29 H6          4.5383    2.0277   -0.8002 H         1 <0>         0.0439
     30 H7          5.2894   -1.5318    1.2365 H         1 <0>         0.0439
     31 H8          4.8253   -1.6074   -0.4626 H         1 <0>         0.0439
     32 H9          6.0315    0.3757    0.0305 H         1 <0>         0.1220
     33 H10        -1.0266   -3.3478   -0.8110 H         1 <0>         0.0655
     34 H11        -2.4668    2.7221    1.4422 H         1 <0>         0.0489
     35 H12        -0.8141    2.1929    1.3413 H         1 <0>         0.0489
     36 H13        -4.2235    1.4413    0.5669 H         1 <0>         0.0819
     37 H14        -0.8347    2.7084   -1.1435 H         1 <0>         0.0247
     38 H15        -2.5162    3.2368   -0.9968 H         1 <0>         0.0247
     39 H16        -1.2337    4.1212   -0.1521 H         1 <0>         0.0247
     40 H17        -6.8253   -2.1835    0.2537 H         1 <0>         0.2954
@<TRIPOS>BOND
     1    1   16 1
     2    2   19 2
     3    3   23 1
     4    3   40 1
     5    4   23 2
     6    5    9 1
     7    5   10 1
     8    5   13 1
     9    6   11 1
    10    6   12 1
    11    6   32 1
    12    7   14 1
    13    7   18 1
    14    7   20 2
    15    8   13 ar
    16    8   14 ar
    17    9   11 1
    18    9   24 1
    19    9   25 1
    20   10   12 1
    21   10   26 1
    22   10   27 1
    23   11   28 1
    24   11   29 1
    25   12   30 1
    26   12   31 1
    27   13   16 ar
    28   14   15 ar
    29   15   17 ar
    30   15   19 1
    31   16   17 ar
    32   17   33 1
    33   18   22 1
    34   18   34 1
    35   18   35 1
    36   19   21 1
    37   20   21 1
    38   20   36 1
    39   21   23 1
    40   22   37 1
    41   22   38 1
    42   22   39 1
