@<TRIPOS>MOLECULE
DB00883
   24    25     0     0     0
SMALL
USER_CHARGES

@<TRIPOS>ATOM
      1 O1          0.3667   -0.1854    1.4251 O.3       1 <0>        -0.3659
      2 O2         -0.2205    1.5436   -1.0290 O.3       1 <0>        -0.3659
      3 O3          2.8222    0.0698    0.1554 O.3       1 <0>        -0.2081
      4 O4         -2.4708   -0.8385    0.5702 O.3       1 <0>        -0.2081
      5 O5          3.0138   -2.0040   -0.6230 O.3       1 <0>        -0.5338
      6 O6         -3.7266   -0.0432   -1.0695 O.3       1 <0>        -0.5338
      7 O7          3.8974   -1.5241    1.3671 O.2       1 <0>         0.0934
      8 O8         -3.5595   -2.2544   -0.8368 O.2       1 <0>         0.0934
      9 N1          3.2903   -1.2677    0.3248 N.pl3     1 <0>         0.2847
     10 N2         -3.3254   -1.0805   -0.5406 N.pl3     1 <0>         0.2847
     11 C1          0.4462   -0.4796    0.0199 C.3       1 <0>         0.1345
     12 C2         -0.7085    0.2438   -0.6449 C.3       1 <0>         0.1345
     13 C3          1.6488    0.1720   -0.6193 C.3       1 <0>         0.2283
     14 C4         -1.7262    0.3686    0.4608 C.3       1 <0>         0.2283
     15 C5         -0.8580    0.5173    1.6943 C.3       1 <0>         0.0947
     16 C6          1.1904    1.6050   -0.7720 C.3       1 <0>         0.0947
     17 H1          0.4023   -1.5664   -0.0948 H         1 <0>         0.0664
     18 H2         -1.0415   -0.2667   -1.5529 H         1 <0>         0.0664
     19 H3          1.8052   -0.2245   -1.6324 H         1 <0>         0.0858
     20 H4         -2.3893    1.2382    0.3869 H         1 <0>         0.0858
     21 H5         -0.5967    1.5652    1.8757 H         1 <0>         0.0600
     22 H6         -1.3112    0.0995    2.5978 H         1 <0>         0.0600
     23 H7          1.3590    2.1949    0.1360 H         1 <0>         0.0600
     24 H8          1.6920    2.1172   -1.5987 H         1 <0>         0.0600
@<TRIPOS>BOND
     1    1   11 1
     2    1   15 1
     3    2   12 1
     4    2   16 1
     5    3    9 1
     6    3   13 1
     7    4   10 1
     8    4   14 1
     9    5    9 1
    10    6   10 1
    11    7    9 2
    12    8   10 2
    13   11   12 1
    14   11   13 1
    15   11   17 1
    16   12   14 1
    17   12   18 1
    18   13   16 1
    19   13   19 1
    20   14   15 1
    21   14   20 1
    22   15   21 1
    23   15   22 1
    24   16   23 1
    25   16   24 1
