@<TRIPOS>MOLECULE
DB00832
   25    26     0     0     0
SMALL
USER_CHARGES

@<TRIPOS>ATOM
      1 O1          1.1791    0.7520   -2.0413 O.2       1 <0>        -0.2745
      2 O2          2.8774   -0.9703    1.8967 O.2       1 <0>        -0.2752
      3 N1          2.3046    0.1058   -0.0993 N.am      1 <0>        -0.2448
      4 C1          0.2726   -0.9514   -0.5750 C.3       1 <0>         0.0693
      5 C2          0.8942   -1.5831    0.6742 C.3       1 <0>         0.0397
      6 C3          1.2882    0.0709   -1.0301 C.2       1 <0>         0.2294
      7 C4         -1.0366   -0.3021   -0.2777 C.ar      1 <0>        -0.0351
      8 C5          2.1473   -0.7933    0.9313 C.2       1 <0>         0.2226
      9 C6          3.4281    1.0168   -0.2080 C.3       1 <0>         0.0108
     10 C7         -2.2240   -1.0130   -0.4541 C.ar      1 <0>        -0.0578
     11 C8         -1.0744    1.0162    0.1764 C.ar      1 <0>        -0.0578
     12 C9         -3.4486   -0.4056   -0.1764 C.ar      1 <0>        -0.0615
     13 C10        -2.2991    1.6236    0.4542 C.ar      1 <0>        -0.0615
     14 C11        -3.4860    0.9127    0.2777 C.ar      1 <0>        -0.0617
     15 H1          0.1673   -1.6977   -1.3718 H         1 <0>         0.0448
     16 H2          1.1783   -2.6227    0.4788 H         1 <0>         0.0369
     17 H3          0.2468   -1.5508    1.5563 H         1 <0>         0.0369
     18 H4          3.0480    2.0424   -0.1847 H         1 <0>         0.0433
     19 H5          3.9197    0.8555   -1.1719 H         1 <0>         0.0433
     20 H6          4.1398    0.8636    0.6067 H         1 <0>         0.0433
     21 H7         -2.2077   -2.0414   -0.8055 H         1 <0>         0.0620
     22 H8         -0.1737    1.5979    0.3482 H         1 <0>         0.0620
     23 H9         -4.3728   -0.9594   -0.3129 H         1 <0>         0.0618
     24 H10        -2.3287    2.6484    0.8128 H         1 <0>         0.0618
     25 H11        -4.4395    1.3852    0.4953 H         1 <0>         0.0618
@<TRIPOS>BOND
     1    1    6 2
     2    2    8 2
     3    3    6 am
     4    3    8 am
     5    3    9 1
     6    4    5 1
     7    4    6 1
     8    4    7 1
     9    4   15 1
    10    5    8 1
    11    5   16 1
    12    5   17 1
    13    7   10 ar
    14    7   11 ar
    15    9   18 1
    16    9   19 1
    17    9   20 1
    18   10   12 ar
    19   10   21 1
    20   11   13 ar
    21   11   22 1
    22   12   14 ar
    23   12   23 1
    24   13   14 ar
    25   13   24 1
    26   14   25 1
