@<TRIPOS>MOLECULE
DB00717
   48    51     0     0     0
SMALL
USER_CHARGES

@<TRIPOS>ATOM
      1 O1          4.4839   -1.0482   -0.3535 O.3       1 <0>        -0.3760
      2 O2         -5.6575   -0.3440    1.7199 O.2       1 <0>        -0.2927
      3 C1          1.3333    0.7097    0.2592 C.3       1 <0>        -0.0289
      4 C2          2.0833   -0.4874   -0.3679 C.3       1 <0>         0.0111
      5 C3         -0.0538    0.9270   -0.3511 C.3       1 <0>        -0.0339
      6 C4         -0.9116   -0.3658   -0.1287 C.3       1 <0>        -0.0314
      7 C5          1.2572   -1.7612   -0.1098 C.3       1 <0>        -0.0435
      8 C6          3.4570   -0.3721    0.3600 C.3       1 <0>         0.1317
      9 C7          2.3504    1.8457    0.1895 C.3       1 <0>        -0.0458
     10 C8         -0.1850   -1.6326   -0.6358 C.3       1 <0>        -0.0488
     11 C9         -2.3120   -0.1594   -0.7665 C.3       1 <0>        -0.0160
     12 C10         3.7194    1.1572    0.3676 C.3       1 <0>        -0.0118
     13 C11        -0.7552    2.1694    0.2336 C.3       1 <0>        -0.0460
     14 C12         2.3011   -0.3516   -1.9042 C.3       1 <0>        -0.0558
     15 C13        -2.1786    2.3312   -0.3081 C.3       1 <0>        -0.0308
     16 C14        -2.9405    1.0505   -0.0978 C.2       1 <0>        -0.0629
     17 C15        -3.2591   -1.3684   -0.7338 C.3       1 <0>        -0.0392
     18 C16         3.4358   -0.8900    1.7423 C.1       1 <0>        -0.0704
     19 C17        -3.9071   -1.5657    0.6255 C.3       1 <0>         0.0104
     20 C18        -4.0240    0.9989    0.6917 C.2       1 <0>        -0.0197
     21 C19        -4.6326   -0.3078    1.0423 C.2       1 <0>         0.1561
     22 C20         3.4190   -1.3112    2.8662 C.1       1 <0>        -0.1163
     23 H1          1.1699    0.5067    1.3298 H         1 <0>         0.0310
     24 H2          0.0445    1.1021   -1.4296 H         1 <0>         0.0307
     25 H3         -1.0426   -0.4952    0.9568 H         1 <0>         0.0309
     26 H4          1.1919   -1.9736    0.9635 H         1 <0>         0.0272
     27 H5          1.7393   -2.6329   -0.5683 H         1 <0>         0.0272
     28 H6          2.1785    2.5925    0.9716 H         1 <0>         0.0269
     29 H7          2.3093    2.3633   -0.7754 H         1 <0>         0.0269
     30 H8         -0.1894   -1.6513   -1.7314 H         1 <0>         0.0268
     31 H9         -0.7297   -2.5264   -0.3110 H         1 <0>         0.0268
     32 H10        -2.1638    0.0771   -1.8304 H         1 <0>         0.0349
     33 H11         4.3900    1.4516   -0.4488 H         1 <0>         0.0303
     34 H12         4.1965    1.4916    1.2968 H         1 <0>         0.0303
     35 H13        -0.1821    3.0728   -0.0055 H         1 <0>         0.0271
     36 H14        -0.7878    2.0945    1.3285 H         1 <0>         0.0271
     37 H15         2.9125    0.5176   -2.1661 H         1 <0>         0.0236
     38 H16         2.8118   -1.2366   -2.3015 H         1 <0>         0.0236
     39 H17         1.3659   -0.2559   -2.4613 H         1 <0>         0.0236
     40 H18        -2.1515    2.5682   -1.3785 H         1 <0>         0.0310
     41 H19        -2.6626    3.1779    0.1925 H         1 <0>         0.0310
     42 H20        -2.7594   -2.2870   -1.0541 H         1 <0>         0.0275
     43 H21        -4.0565   -1.1955   -1.4711 H         1 <0>         0.0275
     44 H22         4.2313   -1.9846   -0.4276 H         1 <0>         0.2114
     45 H23        -3.1677   -1.8174    1.3927 H         1 <0>         0.0345
     46 H24        -4.6344   -2.3825    0.5645 H         1 <0>         0.0345
     47 H25        -4.4406    1.8837    1.1599 H         1 <0>         0.0652
     48 H26         3.4033   -1.6850    3.8632 H         1 <0>         0.1229
@<TRIPOS>BOND
     1    1    8 1
     2    1   44 1
     3    2   21 2
     4    3    4 1
     5    3    5 1
     6    3    9 1
     7    3   23 1
     8    4    7 1
     9    4    8 1
    10    4   14 1
    11    5    6 1
    12    5   13 1
    13    5   24 1
    14    6   10 1
    15    6   11 1
    16    6   25 1
    17    7   10 1
    18    7   26 1
    19    7   27 1
    20    8   12 1
    21    8   18 1
    22    9   12 1
    23    9   28 1
    24    9   29 1
    25   10   30 1
    26   10   31 1
    27   11   16 1
    28   11   17 1
    29   11   32 1
    30   12   33 1
    31   12   34 1
    32   13   15 1
    33   13   35 1
    34   13   36 1
    35   14   37 1
    36   14   38 1
    37   14   39 1
    38   15   16 1
    39   15   40 1
    40   15   41 1
    41   16   20 2
    42   17   19 1
    43   17   42 1
    44   17   43 1
    45   18   22 3
    46   19   21 1
    47   19   45 1
    48   19   46 1
    49   20   21 1
    50   20   47 1
    51   22   48 1
