@<TRIPOS>MOLECULE
DB00610
   25    25     0     0     0
SMALL
USER_CHARGES

@<TRIPOS>ATOM
      1 O1          1.2741    0.4643   -1.8285 O.3       1 <0>        -0.3856
      2 O2         -3.6592   -1.7338    0.5484 O.3       1 <0>        -0.5068
      3 N1          3.1654   -0.7693   -0.0149 N.3       1 <0>        -0.3251
      4 C1          0.8554   -0.4395   -0.8021 C.3       1 <0>         0.0951
      5 C2          1.8199   -0.3554    0.4024 C.3       1 <0>         0.0324
      6 C3         -0.5755   -0.0812   -0.4615 C.ar      1 <0>        -0.0142
      7 C4          1.9183    1.0580    0.9794 C.3       1 <0>        -0.0472
      8 C5         -1.4584   -1.0876   -0.1123 C.ar      1 <0>        -0.0145
      9 C6         -0.9680    1.2450   -0.5067 C.ar      1 <0>        -0.0559
     10 C7         -2.7768   -0.7573    0.2020 C.ar      1 <0>         0.1172
     11 C8         -2.2861    1.5754   -0.1925 C.ar      1 <0>        -0.0580
     12 C9         -3.1905    0.5743    0.1620 C.ar      1 <0>        -0.0202
     13 H1          0.8788   -1.4454   -1.2409 H         1 <0>         0.0659
     14 H2          1.4782   -1.0353    1.1923 H         1 <0>         0.0484
     15 H3          2.6765    1.0995    1.7709 H         1 <0>         0.0246
     16 H4          2.1967    1.7986    0.2218 H         1 <0>         0.0246
     17 H5          0.9776    1.3691    1.4430 H         1 <0>         0.0246
     18 H6         -1.1314   -2.1234   -0.0797 H         1 <0>         0.0658
     19 H7         -0.2849    2.0457   -0.7735 H         1 <0>         0.0621
     20 H8          3.1348   -1.7273   -0.3615 H         1 <0>         0.1185
     21 H9          3.7877   -0.7763    0.7923 H         1 <0>         0.1185
     22 H10         2.1956    0.2446   -2.0487 H         1 <0>         0.2103
     23 H11        -2.6082    2.6122   -0.2221 H         1 <0>         0.0619
     24 H12        -4.2159    0.8380    0.4063 H         1 <0>         0.0654
     25 H13        -3.2042   -2.5930    0.5241 H         1 <0>         0.2921
@<TRIPOS>BOND
     1    1    4 1
     2    1   22 1
     3    2   10 1
     4    2   25 1
     5    3    5 1
     6    3   20 1
     7    3   21 1
     8    4    5 1
     9    4    6 1
    10    4   13 1
    11    5    7 1
    12    5   14 1
    13    6    8 ar
    14    6    9 ar
    15    7   15 1
    16    7   16 1
    17    7   17 1
    18    8   10 ar
    19    8   18 1
    20    9   11 ar
    21    9   19 1
    22   10   12 ar
    23   11   12 ar
    24   11   23 1
    25   12   24 1
