@<TRIPOS>MOLECULE
DB00480
   32    34     0     0     0
SMALL
USER_CHARGES

@<TRIPOS>ATOM
      1 O1          0.3583   -2.8673    0.2316 O.2       1 <0>        -0.2699
      2 O2         -1.5018    0.0340    2.4388 O.2       1 <0>        -0.2734
      3 O3         -5.4880    0.9105    0.3063 O.2       1 <0>        -0.2754
      4 N1         -0.2410   -0.5851    0.0990 N.am      1 <0>        -0.2815
      5 N2         -3.4689    0.4812    1.3319 N.am      1 <0>        -0.2548
      6 N3          2.9732    2.4233   -0.1761 N.pl3     1 <0>        -0.3577
      7 C1         -1.6750   -0.6975    0.1412 C.3       1 <0>         0.1036
      8 C2         -2.3062   -0.0854   -1.0987 C.3       1 <0>        -0.0175
      9 C3          0.4618    0.6884   -0.0006 C.3       1 <0>         0.0433
     10 C4          1.8879    0.2545   -0.0072 C.ar      1 <0>         0.0026
     11 C5          0.6145   -1.6802    0.1493 C.2       1 <0>         0.2479
     12 C6         -3.8169   -0.1970   -1.0030 C.3       1 <0>         0.0265
     13 C7          1.9751   -1.1356    0.0808 C.ar      1 <0>         0.0433
     14 C8         -2.1674   -0.0140    1.4045 C.2       1 <0>         0.2398
     15 C9         -4.3421    0.4654    0.2484 C.2       1 <0>         0.2193
     16 C10         3.0344    1.0220   -0.0857 C.ar      1 <0>         0.0300
     17 C11         3.1815   -1.8083    0.0947 C.ar      1 <0>        -0.0492
     18 C12         4.2696    0.3654   -0.0732 C.ar      1 <0>        -0.0407
     19 C13         4.3420   -1.0372    0.0163 C.ar      1 <0>        -0.0593
     20 H1         -1.9527   -1.7560    0.2180 H         1 <0>         0.0597
     21 H2         -1.9491   -0.5931   -2.0024 H         1 <0>         0.0292
     22 H3         -2.0390    0.9743   -1.1967 H         1 <0>         0.0292
     23 H4          0.2336    1.3149    0.8651 H         1 <0>         0.0515
     24 H5          0.1998    1.1851   -0.9383 H         1 <0>         0.0515
     25 H6         -4.1312   -1.2466   -0.9904 H         1 <0>         0.0359
     26 H7         -4.2771    0.2865   -1.8714 H         1 <0>         0.0359
     27 H8         -3.8239    0.9156    2.1795 H         1 <0>         0.1575
     28 H9          3.2346   -2.8884    0.1635 H         1 <0>         0.0625
     29 H10         5.1946    0.9345   -0.1331 H         1 <0>         0.0636
     30 H11         5.3140   -1.5234    0.0240 H         1 <0>         0.0618
     31 H12         3.8260    2.9643   -0.2318 H         1 <0>         0.1423
     32 H13         2.0793    2.8957   -0.1843 H         1 <0>         0.1423
@<TRIPOS>BOND
     1    1   11 2
     2    2   14 2
     3    3   15 2
     4    4    7 1
     5    4    9 1
     6    4   11 am
     7    5   14 am
     8    5   15 am
     9    5   27 1
    10    6   16 1
    11    6   31 1
    12    6   32 1
    13    7    8 1
    14    7   14 1
    15    7   20 1
    16    8   12 1
    17    8   21 1
    18    8   22 1
    19    9   10 1
    20    9   23 1
    21    9   24 1
    22   10   13 ar
    23   10   16 ar
    24   11   13 1
    25   12   15 1
    26   12   25 1
    27   12   26 1
    28   13   17 ar
    29   16   18 ar
    30   17   19 ar
    31   17   28 1
    32   18   19 ar
    33   18   29 1
    34   19   30 1
