@<TRIPOS>MOLECULE
DB00898
    9     8     0     0     0
SMALL
USER_CHARGES

@<TRIPOS>ATOM
      1 O1          1.4437   -0.4036   -0.4680 O.3       1 <0>        -0.3953
      2 C1          0.4699    0.5141    0.0066 C.3       1 <0>         0.0414
      3 C2         -0.8870   -0.1569   -0.0054 C.3       1 <0>        -0.0418
      4 H1          0.7456    0.8333    1.0160 H         1 <0>         0.0554
      5 H2          0.4736    1.3894   -0.6493 H         1 <0>         0.0554
      6 H3         -1.6645    0.5308    0.3390 H         1 <0>         0.0252
      7 H4         -1.1398   -0.4994   -1.0143 H         1 <0>         0.0252
      8 H5         -0.8886   -1.0411    0.6406 H         1 <0>         0.0252
      9 H6          1.4470   -1.1667    0.1348 H         1 <0>         0.2094
@<TRIPOS>BOND
     1    1    2 1
     2    1    9 1
     3    2    3 1
     4    2    4 1
     5    2    5 1
     6    3    6 1
     7    3    7 1
     8    3    8 1
