@<TRIPOS>MOLECULE
DB00289
   40    41     0     0     0
SMALL
USER_CHARGES

@<TRIPOS>ATOM
      1 O1         -1.0856   -0.2538   -0.8318 O.3       1 <0>        -0.4839
      2 N1          2.7398    2.6775   -0.1526 N.3       1 <0>        -0.3188
      3 C1          0.0962   -0.0947   -0.0441 C.3       1 <0>         0.1263
      4 C2          0.8190    1.1908   -0.4781 C.3       1 <0>         0.0010
      5 C3          0.9288   -1.3464   -0.1954 C.ar      1 <0>        -0.0073
      6 C4          2.1132    1.4391    0.2973 C.3       1 <0>        -0.0007
      7 C5         -2.2748   -0.2410   -0.1576 C.ar      1 <0>         0.1243
      8 C6          0.8830   -2.0511   -1.3872 C.ar      1 <0>        -0.0551
      9 C7          1.7223   -1.7649    0.8602 C.ar      1 <0>        -0.0551
     10 C8         -3.2431    0.7175   -0.4459 C.ar      1 <0>        -0.0088
     11 C9          1.6517   -3.2065   -1.5273 C.ar      1 <0>        -0.0614
     12 C10         2.4912   -2.9202    0.7201 C.ar      1 <0>        -0.0614
     13 C11        -2.5068   -1.2014    0.8240 C.ar      1 <0>        -0.0196
     14 C12         2.4558   -3.6411   -0.4737 C.ar      1 <0>        -0.0617
     15 C13         3.9532    2.9494    0.6044 C.3       1 <0>        -0.0158
     16 C14        -4.4509    0.7156    0.2516 C.ar      1 <0>        -0.0554
     17 C15        -3.0080    1.7531   -1.4957 C.3       1 <0>        -0.0362
     18 C16        -3.7147   -1.2034    1.5213 C.ar      1 <0>        -0.0583
     19 C17        -4.6867   -0.2450    1.2353 C.ar      1 <0>        -0.0613
     20 H1         -0.1657    0.0238    1.0177 H         1 <0>         0.0785
     21 H2          0.1345    2.0398   -0.3507 H         1 <0>         0.0317
     22 H3          1.0325    1.1433   -1.5550 H         1 <0>         0.0317
     23 H4          2.8187    0.6200    0.1278 H         1 <0>         0.0425
     24 H5          1.8916    1.4909    1.3700 H         1 <0>         0.0425
     25 H6          0.2780   -1.7263   -2.2286 H         1 <0>         0.0621
     26 H7          1.7544   -1.2150    1.7962 H         1 <0>         0.0621
     27 H8          2.0886    3.4531   -0.0347 H         1 <0>         0.1216
     28 H9          1.6273   -3.7660   -2.4579 H         1 <0>         0.0618
     29 H10         3.1166   -3.2592    1.5406 H         1 <0>         0.0618
     30 H11        -1.7668   -1.9634    1.0517 H         1 <0>         0.0654
     31 H12         3.0549   -4.5403   -0.5829 H         1 <0>         0.0618
     32 H13         4.4079    3.8768    0.2426 H         1 <0>         0.0388
     33 H14         4.6901    2.1501    0.4744 H         1 <0>         0.0388
     34 H15         3.7426    3.0727    1.6717 H         1 <0>         0.0388
     35 H16        -5.2180    1.4562    0.0416 H         1 <0>         0.0621
     36 H17        -2.2628    2.4773   -1.1518 H         1 <0>         0.0279
     37 H18        -2.6570    1.2902   -2.4241 H         1 <0>         0.0279
     38 H19        -3.9245    2.3022   -1.7371 H         1 <0>         0.0279
     39 H20        -3.8995   -1.9529    2.2853 H         1 <0>         0.0619
     40 H21        -5.6273   -0.2469    1.7782 H         1 <0>         0.0618
@<TRIPOS>BOND
     1    1    3 1
     2    1    7 1
     3    2    6 1
     4    2   15 1
     5    2   27 1
     6    3    4 1
     7    3    5 1
     8    3   20 1
     9    4    6 1
    10    4   21 1
    11    4   22 1
    12    5    8 ar
    13    5    9 ar
    14    6   23 1
    15    6   24 1
    16    7   10 ar
    17    7   13 ar
    18    8   11 ar
    19    8   25 1
    20    9   12 ar
    21    9   26 1
    22   10   16 ar
    23   10   17 1
    24   11   14 ar
    25   11   28 1
    26   12   14 ar
    27   12   29 1
    28   13   18 ar
    29   13   30 1
    30   14   31 1
    31   15   32 1
    32   15   33 1
    33   15   34 1
    34   16   19 ar
    35   16   35 1
    36   17   36 1
    37   17   37 1
    38   17   38 1
    39   18   19 ar
    40   18   39 1
    41   19   40 1
