@<TRIPOS>MOLECULE
DB00987
   30    31     0     0     0
SMALL
USER_CHARGES

@<TRIPOS>ATOM
      1 O1          1.0451    0.1686    1.1305 O.3       1 <0>        -0.3456
      2 O2          0.6697   -0.3062   -1.8079 O.3       1 <0>        -0.3847
      3 O3          3.0465   -2.0736    0.2468 O.3       1 <0>        -0.3864
      4 O4          2.4778    2.5553    1.0174 O.3       1 <0>        -0.3924
      5 O5         -1.8156   -2.7273    0.6891 O.2       1 <0>        -0.2444
      6 N1         -1.0417   -0.5768    0.3671 N.am      1 <0>        -0.2700
      7 N2         -3.3914   -1.1393    0.3062 N.2       1 <0>        -0.1783
      8 N3         -5.0010    0.4922   -0.0883 N.pl3     1 <0>        -0.3430
      9 C1          1.0592   -1.2167   -0.7863 C.3       1 <0>         0.1286
     10 C2          2.4993   -0.9340   -0.4128 C.3       1 <0>         0.1135
     11 C3          0.3402   -0.9206    0.5208 C.3       1 <0>         0.1680
     12 C4          2.3876    0.2036    0.6038 C.3       1 <0>         0.1126
     13 C5          2.6142    1.5812   -0.0029 C.3       1 <0>         0.0730
     14 C6         -1.3787    0.7458    0.1121 C.2       1 <0>         0.0152
     15 C7         -2.0770   -1.5439    0.4656 C.2       1 <0>         0.3522
     16 C8         -2.6362    1.1547   -0.0453 C.2       1 <0>        -0.0056
     17 C9         -3.6883    0.1111    0.0669 C.2       1 <0>         0.1230
     18 H1          0.8695   -2.2378   -1.1313 H         1 <0>         0.0665
     19 H2          3.1469   -0.6889   -1.2595 H         1 <0>         0.0647
     20 H3          0.4243   -1.7767    1.2011 H         1 <0>         0.0867
     21 H4          3.0640    0.0628    1.4550 H         1 <0>         0.0647
     22 H5          1.8750    1.8090   -0.7764 H         1 <0>         0.0584
     23 H6          3.6187    1.6586   -0.4303 H         1 <0>         0.0584
     24 H7          1.1996   -0.5101   -2.5973 H         1 <0>         0.2101
     25 H8          2.5533   -2.2327    1.0686 H         1 <0>         0.2100
     26 H9         -0.5746    1.4671    0.0247 H         1 <0>         0.0812
     27 H10         2.6310    3.4235    0.6073 H         1 <0>         0.2095
     28 H11        -2.9026    2.1829   -0.2506 H         1 <0>         0.0666
     29 H12        -5.2632    1.4546   -0.2746 H         1 <0>         0.1437
     30 H13        -5.7516   -0.1865   -0.0197 H         1 <0>         0.1437
@<TRIPOS>BOND
     1    1   11 1
     2    1   12 1
     3    2    9 1
     4    2   24 1
     5    3   10 1
     6    3   25 1
     7    4   13 1
     8    4   27 1
     9    5   15 2
    10    6   11 1
    11    6   14 1
    12    6   15 am
    13    7   15 1
    14    7   17 2
    15    8   17 1
    16    8   29 1
    17    8   30 1
    18    9   10 1
    19    9   11 1
    20    9   18 1
    21   10   12 1
    22   10   19 1
    23   11   20 1
    24   12   13 1
    25   12   21 1
    26   13   22 1
    27   13   23 1
    28   14   16 2
    29   14   26 1
    30   16   17 1
    31   16   28 1
