@<TRIPOS>MOLECULE
DB00283
   50    52     0     0     0
SMALL
USER_CHARGES

@<TRIPOS>ATOM
      1 Cl1         1.8937   -5.3841   -1.6397 Cl        1 <0>        -0.0835
      2 O1          0.6356    0.8706   -0.0920 O.3       1 <0>        -0.3643
      3 N1         -4.2456    0.8959   -0.5466 N.3       1 <0>        -0.3023
      4 C1         -3.0555    0.1765   -0.0718 C.3       1 <0>         0.0122
      5 C2         -3.3037    0.0746    1.4346 C.3       1 <0>        -0.0361
      6 C3         -4.8175    0.1532    1.5994 C.3       1 <0>        -0.0388
      7 C4         -5.3644    0.3016    0.1893 C.3       1 <0>        -0.0011
      8 C5         -1.7493    0.8965   -0.3820 C.3       1 <0>        -0.0137
      9 C6         -0.5654    0.1856    0.2387 C.3       1 <0>         0.0507
     10 C7         -4.4424    0.7986   -1.9879 C.3       1 <0>        -0.0125
     11 C8          1.7723    0.2325    0.4735 C.3       1 <0>         0.1165
     12 C9          1.8038   -1.2012   -0.0661 C.ar      1 <0>        -0.0116
     13 C10         3.0482    0.9965    0.0974 C.ar      1 <0>        -0.0117
     14 C11         1.5428    0.3526    1.9934 C.3       1 <0>        -0.0274
     15 C12         2.3420   -2.1889    0.7245 C.ar      1 <0>        -0.0541
     16 C13         1.2919   -1.4427   -1.3192 C.ar      1 <0>        -0.0541
     17 C14         4.2562    0.5100    0.5362 C.ar      1 <0>        -0.0555
     18 C15         2.9301    2.1354   -0.6623 C.ar      1 <0>        -0.0555
     19 C16         2.3701   -3.4941    0.2337 C.ar      1 <0>        -0.0430
     20 C17         1.3200   -2.7479   -1.8103 C.ar      1 <0>        -0.0430
     21 C18         5.4166    1.2046    0.1942 C.ar      1 <0>        -0.0614
     22 C19         4.0904    2.8300   -1.0039 C.ar      1 <0>        -0.0614
     23 C20         1.8591   -3.7737   -1.0339 C.ar      1 <0>         0.0410
     24 C21         5.3336    2.3646   -0.5759 C.ar      1 <0>        -0.0617
     25 H1         -3.0316   -0.8388   -0.4932 H         1 <0>         0.0463
     26 H2         -2.8449    0.9009    1.9914 H         1 <0>         0.0281
     27 H3         -2.9133   -0.8645    1.8417 H         1 <0>         0.0281
     28 H4         -5.2188   -0.7366    2.0948 H         1 <0>         0.0278
     29 H5         -5.0793    1.0249    2.2108 H         1 <0>         0.0278
     30 H6         -5.6321   -0.6860   -0.2084 H         1 <0>         0.0426
     31 H7         -6.2550    0.9377    0.1684 H         1 <0>         0.0426
     32 H8         -1.5934    0.9603   -1.4659 H         1 <0>         0.0302
     33 H9         -1.7787    1.9355   -0.0276 H         1 <0>         0.0302
     34 H10        -0.7300    0.2267    1.3166 H         1 <0>         0.0561
     35 H11        -0.6130   -0.8642   -0.0546 H         1 <0>         0.0561
     36 H12        -4.5016   -0.2401   -2.3327 H         1 <0>         0.0391
     37 H13        -3.6302    1.2949   -2.5283 H         1 <0>         0.0391
     38 H14        -5.3673    1.3084   -2.2799 H         1 <0>         0.0391
     39 H15         0.8263   -0.3765    2.3888 H         1 <0>         0.0264
     40 H16         1.1915    1.3554    2.2687 H         1 <0>         0.0264
     41 H17         2.4616    0.1775    2.5665 H         1 <0>         0.0264
     42 H18         2.7428   -2.0024    1.7146 H         1 <0>         0.0622
     43 H19         0.9032   -0.6607   -1.9642 H         1 <0>         0.0622
     44 H20         4.3532   -0.3783    1.1485 H         1 <0>         0.0621
     45 H21         1.9818    2.5280   -1.0123 H         1 <0>         0.0621
     46 H22         2.7923   -4.2837    0.8500 H         1 <0>         0.0632
     47 H23         0.9262   -2.9496   -2.8032 H         1 <0>         0.0632
     48 H24         6.3845    0.8446    0.5307 H         1 <0>         0.0618
     49 H25         4.0263    3.7336   -1.6032 H         1 <0>         0.0618
     50 H26         6.2370    2.9060   -0.8412 H         1 <0>         0.0618
@<TRIPOS>BOND
     1    1   23 1
     2    2    9 1
     3    2   11 1
     4    3    4 1
     5    3    7 1
     6    3   10 1
     7    4    5 1
     8    4    8 1
     9    4   25 1
    10    5    6 1
    11    5   26 1
    12    5   27 1
    13    6    7 1
    14    6   28 1
    15    6   29 1
    16    7   30 1
    17    7   31 1
    18    8    9 1
    19    8   32 1
    20    8   33 1
    21    9   34 1
    22    9   35 1
    23   10   36 1
    24   10   37 1
    25   10   38 1
    26   11   12 1
    27   11   13 1
    28   11   14 1
    29   12   15 ar
    30   12   16 ar
    31   13   17 ar
    32   13   18 ar
    33   14   39 1
    34   14   40 1
    35   14   41 1
    36   15   19 ar
    37   15   42 1
    38   16   20 ar
    39   16   43 1
    40   17   21 ar
    41   17   44 1
    42   18   22 ar
    43   18   45 1
    44   19   23 ar
    45   19   46 1
    46   20   23 ar
    47   20   47 1
    48   21   24 ar
    49   21   48 1
    50   22   24 ar
    51   22   49 1
    52   24   50 1
