@<TRIPOS>MOLECULE
DB00238
   34    37     0     0     0
SMALL
USER_CHARGES

@<TRIPOS>ATOM
      1 O1          0.2928    2.9559    1.7641 O.2       1 <0>        -0.2697
      2 N1          0.6326   -0.7610   -0.0801 N.pl3     1 <0>        -0.2649
      3 N2         -1.1224    1.5215    0.7379 N.am      1 <0>        -0.2784
      4 N3         -1.3451   -1.7884   -0.9228 N.ar      1 <0>        -0.2380
      5 N4          2.7304    0.0165   -0.8925 N.ar      1 <0>        -0.2392
      6 C1          1.2325   -2.1345   -0.0560 C.3       1 <0>         0.0314
      7 C2          0.9765   -3.0386    1.0908 C.3       1 <0>        -0.0322
      8 C3          2.3396   -2.4477    0.8793 C.3       1 <0>        -0.0322
      9 C4         -0.7653   -0.6982   -0.3322 C.ar      1 <0>         0.1485
     10 C5          1.5474    0.3074   -0.2692 C.ar      1 <0>         0.1390
     11 C6         -1.5559    0.3872    0.0386 C.ar      1 <0>         0.0774
     12 C7          1.2929    1.6066    0.1593 C.ar      1 <0>         0.0772
     13 C8         -2.9420    0.3242   -0.1974 C.ar      1 <0>        -0.0244
     14 C9          0.1294    2.0391    0.9547 C.2       1 <0>         0.2517
     15 C10         2.2547    2.6036   -0.0957 C.ar      1 <0>        -0.0449
     16 C11        -3.5159   -0.7762   -0.8114 C.ar      1 <0>        -0.0388
     17 C12        -2.6747   -1.8049   -1.1546 C.ar      1 <0>         0.0301
     18 C13         3.6300    0.9962   -1.1222 C.ar      1 <0>         0.0297
     19 C14        -3.8715    1.4393    0.1788 C.3       1 <0>        -0.0378
     20 C15         3.4374    2.3036   -0.7515 C.ar      1 <0>        -0.0427
     21 H1          1.2942   -2.5758   -1.0464 H         1 <0>         0.0505
     22 H2          0.8461   -4.0938    0.8851 H         1 <0>         0.0284
     23 H3          0.3953   -2.6707    1.9274 H         1 <0>         0.0284
     24 H4          2.6682   -1.7006    1.5913 H         1 <0>         0.0284
     25 H5          3.1259   -3.1070    0.5321 H         1 <0>         0.0284
     26 H6         -1.8493    2.0720    1.1851 H         1 <0>         0.1552
     27 H7          2.0928    3.6329    0.2179 H         1 <0>         0.0627
     28 H8         -4.5786   -0.8446   -1.0135 H         1 <0>         0.0636
     29 H9         -3.0503   -2.7023   -1.6340 H         1 <0>         0.0830
     30 H10         4.5359    0.6837   -1.6299 H         1 <0>         0.0830
     31 H11        -4.8845    1.2760   -0.2066 H         1 <0>         0.0278
     32 H12        -3.9506    1.5221    1.2678 H         1 <0>         0.0278
     33 H13        -3.5291    2.3907   -0.2426 H         1 <0>         0.0278
     34 H14         4.1806    3.0658   -0.9516 H         1 <0>         0.0633
@<TRIPOS>BOND
     1    1   14 2
     2    2    6 1
     3    2    9 1
     4    2   10 1
     5    3   11 1
     6    3   14 am
     7    3   26 1
     8    4    9 ar
     9    4   17 ar
    10    5   10 ar
    11    5   18 ar
    12    6    7 1
    13    6    8 1
    14    6   21 1
    15    7    8 1
    16    7   22 1
    17    7   23 1
    18    8   24 1
    19    8   25 1
    20    9   11 ar
    21   10   12 ar
    22   11   13 ar
    23   12   14 1
    24   12   15 ar
    25   13   16 ar
    26   13   19 1
    27   15   20 ar
    28   15   27 1
    29   16   17 ar
    30   16   28 1
    31   17   29 1
    32   18   20 ar
    33   18   30 1
    34   19   31 1
    35   19   32 1
    36   19   33 1
    37   20   34 1
