@<TRIPOS>MOLECULE
DB00940
   51    53     0     0     0
SMALL
USER_CHARGES

@<TRIPOS>ATOM
      1 O1          0.0080    0.1064   -0.3187 O.3       1 <0>        -0.4586
      2 O2         -5.0339   -0.0332    0.5425 O.3       1 <0>        -0.4554
      3 O3         -1.2524   -0.0117    1.6136 O.2       1 <0>        -0.2498
      4 N1          3.6544    0.1104    0.3456 N.4       1 <0>         0.2432
      5 C1          2.4111    0.1621   -0.4642 C.3       1 <0>         0.0047
      6 C2          3.7078   -1.1771    1.1792 C.3       1 <0>        -0.0331
      7 C3          4.8947    0.1462   -0.5576 C.3       1 <0>        -0.0331
      8 C4          3.7287    1.3049    1.3064 C.3       1 <0>        -0.0412
      9 C5          1.2099    0.0936    0.4581 C.3       1 <0>         0.1321
     10 C6          3.6361   -2.3726    0.2547 C.3       1 <0>        -0.0244
     11 C7          4.9072    1.4441   -1.3354 C.3       1 <0>        -0.0244
     12 C8         -2.3219    0.0705   -0.5443 C.3       1 <0>         0.1131
     13 C9         -1.1518    0.0487    0.3957 C.2       1 <0>         0.3194
     14 C10        -3.1169   -1.2028   -0.4166 C.ar      1 <0>         0.0131
     15 C11        -3.1643    1.2947   -0.2965 C.ar      1 <0>         0.0131
     16 C12        -4.4056   -1.1837    0.1271 C.ar      1 <0>         0.1327
     17 C13        -4.4506    1.1748    0.2399 C.ar      1 <0>         0.1327
     18 C14        -2.5707   -2.4283   -0.8264 C.ar      1 <0>        -0.0540
     19 C15        -2.6656    2.5738   -0.5854 C.ar      1 <0>        -0.0540
     20 C16        -5.1307   -2.3695    0.2741 C.ar      1 <0>        -0.0190
     21 C17        -5.2205    2.3125    0.4976 C.ar      1 <0>        -0.0190
     22 C18        -3.2977   -3.6110   -0.6857 C.ar      1 <0>        -0.0612
     23 C19        -3.4371    3.7090   -0.3343 C.ar      1 <0>        -0.0612
     24 C20        -4.5762   -3.5816   -0.1332 C.ar      1 <0>        -0.0583
     25 C21        -4.7131    3.5783    0.2091 C.ar      1 <0>        -0.0583
     26 H1          2.3593    1.1183   -0.9961 H         1 <0>         0.0849
     27 H2          2.4057   -0.6160   -1.2339 H         1 <0>         0.0849
     28 H3          4.6655   -1.1723    1.7145 H         1 <0>         0.0812
     29 H4          2.9210   -1.1740    1.9376 H         1 <0>         0.0812
     30 H5          5.7853    0.0455    0.0721 H         1 <0>         0.0812
     31 H6          4.8465   -0.6794   -1.2711 H         1 <0>         0.0812
     32 H7          4.7595    1.4049    1.6608 H         1 <0>         0.0778
     33 H8          3.3985    2.2122    0.7933 H         1 <0>         0.0778
     34 H9          3.0812    1.1120    2.1672 H         1 <0>         0.0778
     35 H10         1.1801   -0.8316    1.0374 H         1 <0>         0.0752
     36 H11         1.1690    0.9506    1.1376 H         1 <0>         0.0752
     37 H12         3.6716   -3.2781    0.8739 H         1 <0>         0.0281
     38 H13         2.7026   -2.4451   -0.3077 H         1 <0>         0.0281
     39 H14         4.4825   -2.4638   -0.4288 H         1 <0>         0.0281
     40 H15         5.8205    1.4718   -1.9424 H         1 <0>         0.0281
     41 H16         4.0818    1.5341   -2.0458 H         1 <0>         0.0281
     42 H17         4.9422    2.3372   -0.7073 H         1 <0>         0.0281
     43 H18        -1.9701    0.1273   -1.5842 H         1 <0>         0.0514
     44 H19        -1.5721   -2.4682   -1.2550 H         1 <0>         0.0622
     45 H20        -1.6699    2.6925   -1.0056 H         1 <0>         0.0622
     46 H21        -6.1304   -2.3543    0.7003 H         1 <0>         0.0654
     47 H22        -6.2183    2.2186    0.9179 H         1 <0>         0.0654
     48 H23        -2.8652   -4.5548   -1.0044 H         1 <0>         0.0618
     49 H24        -3.0412    4.6948   -0.5602 H         1 <0>         0.0618
     50 H25        -5.1412   -4.5023   -0.0216 H         1 <0>         0.0619
     51 H26        -5.3130    4.4620    0.4064 H         1 <0>         0.0619
@<TRIPOS>BOND
     1    1    9 1
     2    1   13 1
     3    2   16 1
     4    2   17 1
     5    3   13 2
     6    4    5 1
     7    4    6 1
     8    4    7 1
     9    4    8 1
    10    5    9 1
    11    5   26 1
    12    5   27 1
    13    6   10 1
    14    6   28 1
    15    6   29 1
    16    7   11 1
    17    7   30 1
    18    7   31 1
    19    8   32 1
    20    8   33 1
    21    8   34 1
    22    9   35 1
    23    9   36 1
    24   10   37 1
    25   10   38 1
    26   10   39 1
    27   11   40 1
    28   11   41 1
    29   11   42 1
    30   12   13 1
    31   12   14 1
    32   12   15 1
    33   12   43 1
    34   14   16 ar
    35   14   18 ar
    36   15   17 ar
    37   15   19 ar
    38   16   20 ar
    39   17   21 ar
    40   18   22 ar
    41   18   44 1
    42   19   23 ar
    43   19   45 1
    44   20   24 ar
    45   20   46 1
    46   21   25 ar
    47   21   47 1
    48   22   24 ar
    49   22   48 1
    50   23   25 ar
    51   23   49 1
    52   24   50 1
    53   25   51 1
