@<TRIPOS>MOLECULE
DB00991
   37    39     0     0     0
SMALL
USER_CHARGES

@<TRIPOS>ATOM
      1 O1          1.2581    0.7750    0.5615 O.3       1 <0>        -0.4391
      2 O2          6.3665   -0.3363   -1.1649 O.3       1 <0>        -0.4806
      3 O3          6.0751   -0.4551    1.0865 O.2       1 <0>        -0.2510
      4 N1          1.0217   -1.4729    0.4866 N.2       1 <0>        -0.2127
      5 C1         -0.0502    0.4950    0.3064 C.2       1 <0>         0.1630
      6 C2         -0.1838   -0.8667    0.2625 C.2       1 <0>         0.1172
      7 C3          1.8343   -0.4545    0.6562 C.2       1 <0>         0.1973
      8 C4          3.2785   -0.4701    0.9341 C.3       1 <0>         0.0340
      9 C5         -0.9145    1.6299    0.1557 C.ar      1 <0>         0.0195
     10 C6         -1.4052   -1.5816    0.0186 C.ar      1 <0>         0.0041
     11 C7          4.1319   -0.4585   -0.3468 C.3       1 <0>         0.0531
     12 C8         -2.2648    1.5407    0.5104 C.ar      1 <0>        -0.0510
     13 C9         -0.4147    2.8356   -0.3483 C.ar      1 <0>        -0.0510
     14 C10        -1.7708   -1.9129   -1.2861 C.ar      1 <0>        -0.0524
     15 C11        -2.2263   -1.9441    1.0863 C.ar      1 <0>        -0.0524
     16 C12        -3.1052    2.6441    0.3631 C.ar      1 <0>        -0.0611
     17 C13        -1.2551    3.9390   -0.4954 C.ar      1 <0>        -0.0611
     18 C14        -2.9574   -2.6070   -1.5229 C.ar      1 <0>        -0.0611
     19 C15        -3.4128   -2.6383    0.8495 C.ar      1 <0>        -0.0611
     20 C16         5.6071   -0.4130   -0.0437 C.2       1 <0>         0.3052
     21 C17        -2.6004    3.8433   -0.1396 C.ar      1 <0>        -0.0617
     22 C18        -3.7783   -2.9698   -0.4551 C.ar      1 <0>        -0.0617
     23 H1          3.5213   -1.3623    1.5248 H         1 <0>         0.0365
     24 H2          3.5425    0.3905    1.5616 H         1 <0>         0.0365
     25 H3          3.9280   -1.3580   -0.9389 H         1 <0>         0.0382
     26 H4          3.8802    0.4219   -0.9497 H         1 <0>         0.0382
     27 H5         -2.6970    0.6446    0.9368 H         1 <0>         0.0625
     28 H6          0.6281    2.9370   -0.6407 H         1 <0>         0.0625
     29 H7         -1.1420   -1.6374   -2.1295 H         1 <0>         0.0624
     30 H8         -1.9550   -1.6952    2.1097 H         1 <0>         0.0624
     31 H9         -4.1512    2.5726    0.6470 H         1 <0>         0.0618
     32 H10        -0.8627    4.8724   -0.8883 H         1 <0>         0.0618
     33 H11        -3.2424   -2.8648   -2.5387 H         1 <0>         0.0618
     34 H12        -4.0519   -2.9208    1.6809 H         1 <0>         0.0618
     35 H13        -3.2546    4.7028   -0.2528 H         1 <0>         0.0618
     36 H14        -4.7021   -3.5102   -0.6396 H         1 <0>         0.0618
     37 H15         7.3250   -0.3145   -0.9572 H         1 <0>         0.2951
@<TRIPOS>BOND
     1    1    5 1
     2    1    7 1
     3    2   20 1
     4    2   37 1
     5    3   20 2
     6    4    6 1
     7    4    7 2
     8    5    6 2
     9    5    9 1
    10    6   10 1
    11    7    8 1
    12    8   11 1
    13    8   23 1
    14    8   24 1
    15    9   12 ar
    16    9   13 ar
    17   10   14 ar
    18   10   15 ar
    19   11   20 1
    20   11   25 1
    21   11   26 1
    22   12   16 ar
    23   12   27 1
    24   13   17 ar
    25   13   28 1
    26   14   18 ar
    27   14   29 1
    28   15   19 ar
    29   15   30 1
    30   16   21 ar
    31   16   31 1
    32   17   21 ar
    33   17   32 1
    34   18   22 ar
    35   18   33 1
    36   19   22 ar
    37   19   34 1
    38   21   35 1
    39   22   36 1
