@<TRIPOS>MOLECULE
DB00445
   68    72     0     0     0
SMALL
USER_CHARGES

@<TRIPOS>ATOM
      1 O1         -1.4891    0.7841    0.4239 O.3       1 <0>        -0.3432
      2 O2         -3.6322    1.4653    1.1845 O.3       1 <0>        -0.3457
      3 O3         -2.5283   -1.5206   -0.8678 O.3       1 <0>        -0.3806
      4 O4         -4.7828    2.4817   -2.1473 O.3       1 <0>        -0.3877
      5 O5          1.2828    1.3078    1.5750 O.3       1 <0>        -0.5057
      6 O6          1.7556   -3.6505   -0.8030 O.3       1 <0>        -0.5057
      7 O7         -3.8449   -3.3500    1.5229 O.2       1 <0>        -0.2919
      8 O8         -4.4053   -5.1894   -0.3536 O.3       1 <0>        -0.3874
      9 O9          3.7588    1.6207    1.2062 O.2       1 <0>        -0.2864
     10 O10         4.2107   -3.1747   -1.1063 O.2       1 <0>        -0.2865
     11 O11         6.2640    2.0864    0.9298 O.3       1 <0>        -0.4944
     12 N1         -2.6635    4.4627   -1.5894 N.3       1 <0>        -0.3249
     13 C1         -1.0342   -0.2071    1.3429 C.3       1 <0>         0.0934
     14 C2         -2.1292   -2.2411    0.2914 C.3       1 <0>         0.1325
     15 C3         -2.0919   -1.3049    1.5013 C.3       1 <0>         0.0141
     16 C4         -0.7705   -2.9145    0.0726 C.3       1 <0>         0.0123
     17 C5          0.2924   -0.7263    0.8468 C.ar      1 <0>         0.0302
     18 C6          0.4090   -1.9806    0.2238 C.ar      1 <0>         0.0070
     19 C7         -2.2460    1.7932    1.0850 C.3       1 <0>         0.1618
     20 C8         -2.0606    3.1301    0.3705 C.3       1 <0>         0.0161
     21 C9         -2.7437    3.1247   -1.0007 C.3       1 <0>         0.0382
     22 C10        -4.2056    2.6775   -0.8597 C.3       1 <0>         0.0963
     23 C11        -4.2886    1.3567   -0.0811 C.3       1 <0>         0.0861
     24 C12         1.4329    0.0840    0.9826 C.ar      1 <0>         0.1345
     25 C13        -3.1845   -3.2925    0.4868 C.2       1 <0>         0.1900
     26 C14         1.6672   -2.4123   -0.2288 C.ar      1 <0>         0.1322
     27 C15         2.6802   -0.3511    0.5209 C.ar      1 <0>         0.0784
     28 C16         2.7978   -1.6004   -0.0836 C.ar      1 <0>         0.0782
     29 C17        -5.7359    0.9554    0.1914 C.3       1 <0>        -0.0361
     30 C18        -3.3817   -4.2652   -0.6564 C.3       1 <0>         0.1051
     31 C19         3.8633    0.5194    0.6806 C.2       1 <0>         0.2016
     32 C20         4.1081   -2.0775   -0.5716 C.2       1 <0>         0.1982
     33 C21         5.1753    0.0414    0.1984 C.ar      1 <0>         0.0748
     34 C22         5.2935   -1.2120   -0.4054 C.ar      1 <0>         0.0367
     35 C23         6.3059    0.8532    0.3496 C.ar      1 <0>         0.1316
     36 C24         6.5425   -1.6542   -0.8579 C.ar      1 <0>        -0.0500
     37 C25         7.5487    0.4085   -0.1023 C.ar      1 <0>        -0.0192
     38 C26         7.6668   -0.8423   -0.7050 C.ar      1 <0>        -0.0576
     39 C27         6.0183    3.1973    0.0706 C.3       1 <0>         0.0788
     40 H1         -0.8721    0.2102    2.3465 H         1 <0>         0.0649
     41 H2         -1.8538   -1.8912    2.4004 H         1 <0>         0.0326
     42 H3         -3.0793   -0.8630    1.6661 H         1 <0>         0.0326
     43 H4         -0.7467   -3.3374   -0.9397 H         1 <0>         0.0347
     44 H5         -0.6438   -3.7314    0.7955 H         1 <0>         0.0347
     45 H6         -1.8836    1.9429    2.1091 H         1 <0>         0.0910
     46 H7         -0.9923    3.3497    0.2537 H         1 <0>         0.0330
     47 H8         -2.5020    3.9217    0.9908 H         1 <0>         0.0330
     48 H9         -2.2193    2.4384   -1.6770 H         1 <0>         0.0486
     49 H10        -4.7846    3.4482   -0.3339 H         1 <0>         0.0635
     50 H11        -3.8329    0.5530   -0.6662 H         1 <0>         0.0620
     51 H12        -2.2953   -2.0326   -1.6598 H         1 <0>         0.2108
     52 H13        -5.7683    0.0227    0.7655 H         1 <0>         0.0255
     53 H14        -6.2451    1.7138    0.7963 H         1 <0>         0.0255
     54 H15        -6.2979    0.8095   -0.7357 H         1 <0>         0.0255
     55 H16        -1.6901    4.7635   -1.6256 H         1 <0>         0.1186
     56 H17        -3.1440    5.1341   -0.9913 H         1 <0>         0.1186
     57 H18        -2.4666   -4.8368   -0.8230 H         1 <0>         0.0637
     58 H19        -3.6600   -3.7369   -1.5711 H         1 <0>         0.0637
     59 H20        -4.6951    3.3188   -2.6343 H         1 <0>         0.2100
     60 H21         0.3824    1.6412    1.4419 H         1 <0>         0.2922
     61 H22         1.0709   -4.2429   -0.4548 H         1 <0>         0.2922
     62 H23         6.6608   -2.6253   -1.3310 H         1 <0>         0.0625
     63 H24        -5.2388   -4.6925   -0.2898 H         1 <0>         0.2100
     64 H25         8.4321    1.0314    0.0123 H         1 <0>         0.0654
     65 H26         8.6354   -1.1862   -1.0560 H         1 <0>         0.0619
     66 H27         6.9208    3.4284   -0.5036 H         1 <0>         0.0660
     67 H28         5.7680    4.0622    0.6910 H         1 <0>         0.0660
     68 H29         5.1860    3.0033   -0.6138 H         1 <0>         0.0660
@<TRIPOS>BOND
     1    1   13 1
     2    1   19 1
     3    2   19 1
     4    2   23 1
     5    3   14 1
     6    3   51 1
     7    4   22 1
     8    4   59 1
     9    5   24 1
    10    5   60 1
    11    6   26 1
    12    6   61 1
    13    7   25 2
    14    8   30 1
    15    8   63 1
    16    9   31 2
    17   10   32 2
    18   11   35 1
    19   11   39 1
    20   12   21 1
    21   12   55 1
    22   12   56 1
    23   13   15 1
    24   13   17 1
    25   13   40 1
    26   14   15 1
    27   14   16 1
    28   14   25 1
    29   15   41 1
    30   15   42 1
    31   16   18 1
    32   16   43 1
    33   16   44 1
    34   17   18 ar
    35   17   24 ar
    36   18   26 ar
    37   19   20 1
    38   19   45 1
    39   20   21 1
    40   20   46 1
    41   20   47 1
    42   21   22 1
    43   21   48 1
    44   22   23 1
    45   22   49 1
    46   23   29 1
    47   23   50 1
    48   24   27 ar
    49   25   30 1
    50   26   28 ar
    51   27   28 ar
    52   27   31 1
    53   28   32 1
    54   29   52 1
    55   29   53 1
    56   29   54 1
    57   30   57 1
    58   30   58 1
    59   31   33 1
    60   32   34 1
    61   33   34 ar
    62   33   35 ar
    63   34   36 ar
    64   35   37 ar
    65   36   38 ar
    66   36   62 1
    67   37   38 ar
    68   37   64 1
    69   38   65 1
    70   39   66 1
    71   39   67 1
    72   39   68 1
