@<TRIPOS>MOLECULE
DB00323
   31    32     0     0     0
SMALL
USER_CHARGES

@<TRIPOS>ATOM
      1 O1          0.0668    0.3999   -2.8365 O.2       1 <0>        -0.2866
      2 O2         -3.5776   -2.6062   -0.0943 O.3       1 <0>        -0.5031
      3 O3         -4.8723   -0.4034    0.9504 O.3       1 <0>        -0.4989
      4 O4         -3.1736    3.2799    0.6222 O.3       1 <0>        -0.5759
      5 O5         -4.8372    2.0270    1.3165 O.2       1 <0>         0.0416
      6 N1         -3.7301    2.1631    0.7441 N.pl3     1 <0>         0.0836
      7 C1         -1.2394    0.0344   -0.9310 C.ar      1 <0>         0.0324
      8 C2          1.3437    0.0985   -0.9003 C.ar      1 <0>         0.0223
      9 C3          0.0802    0.1883   -1.6148 C.2       1 <0>         0.1935
     10 C4         -1.8524    1.1562   -0.4238 C.ar      1 <0>         0.0304
     11 C5         -1.7876   -1.2235   -0.8362 C.ar      1 <0>        -0.0053
     12 C6         -3.0842    1.0119    0.2146 C.ar      1 <0>         0.3184
     13 C7         -3.0195   -1.3677   -0.1977 C.ar      1 <0>         0.1659
     14 C8          3.7675   -0.0743    0.4701 C.ar      1 <0>        -0.0504
     15 C9          1.3523   -0.1392    0.4741 C.ar      1 <0>        -0.0507
     16 C10         2.5469    0.2499   -1.5895 C.ar      1 <0>        -0.0507
     17 C11        -3.6677   -0.2499    0.3278 C.ar      1 <0>         0.2370
     18 C12         2.5643   -0.2255    1.1592 C.ar      1 <0>        -0.0582
     19 C13         3.7589    0.1635   -0.9043 C.ar      1 <0>        -0.0582
     20 C14         5.0634   -0.1659    1.2031 C.3       1 <0>        -0.0397
     21 H1         -1.3696    2.1239   -0.5299 H         1 <0>         0.0694
     22 H2         -1.2809   -2.0924   -1.2463 H         1 <0>         0.0662
     23 H3          0.4400   -0.2634    1.0494 H         1 <0>         0.0625
     24 H4          2.5676    0.4354   -2.6602 H         1 <0>         0.0625
     25 H5          2.5586   -0.4127    2.2298 H         1 <0>         0.0620
     26 H6          4.6899    0.2812   -1.4525 H         1 <0>         0.0620
     27 H7          5.8289    0.4603    0.7322 H         1 <0>         0.0278
     28 H8          4.9578    0.1806    2.2368 H         1 <0>         0.0278
     29 H9          5.4159   -1.2020    1.2146 H         1 <0>         0.0278
     30 H10        -4.2021   -2.6211    0.6490 H         1 <0>         0.2923
     31 H11        -5.3084   -1.2069    0.6235 H         1 <0>         0.2925
@<TRIPOS>BOND
     1    1    9 2
     2    2   13 1
     3    2   30 1
     4    3   17 1
     5    3   31 1
     6    4    6 1
     7    5    6 2
     8    6   12 1
     9    7    9 1
    10    7   10 ar
    11    7   11 ar
    12    8    9 1
    13    8   15 ar
    14    8   16 ar
    15   10   12 ar
    16   10   21 1
    17   11   13 ar
    18   11   22 1
    19   12   17 ar
    20   13   17 ar
    21   14   18 ar
    22   14   19 ar
    23   14   20 1
    24   15   18 ar
    25   15   23 1
    26   16   19 ar
    27   16   24 1
    28   18   25 1
    29   19   26 1
    30   20   27 1
    31   20   28 1
    32   20   29 1
