@<TRIPOS>MOLECULE
DB00481
   61    65     0     0     0
SMALL
USER_CHARGES

@<TRIPOS>ATOM
      1 S1          5.1095    0.2037   -1.9682 S.3       1 <0>        -0.0874
      2 O1         -2.0749   -0.8234    2.1014 O.3       1 <0>        -0.4907
      3 O2          4.0459    0.5683    2.5859 O.2       1 <0>        -0.2866
      4 O3          6.6915   -4.7240   -1.5568 O.3       1 <0>        -0.5067
      5 O4          2.4318    6.0901   -0.7909 O.3       1 <0>        -0.5068
      6 N1         -5.1037   -0.1100    0.1255 N.3       1 <0>        -0.2991
      7 C1         -5.2245   -1.3841   -0.5968 C.3       1 <0>        -0.0010
      8 C2         -6.4244    0.4169    0.4976 C.3       1 <0>        -0.0010
      9 C3         -6.0587   -1.2208   -1.8681 C.3       1 <0>        -0.0402
     10 C4         -7.2979    0.6394   -0.7381 C.3       1 <0>        -0.0402
     11 C5         -7.4331   -0.6382   -1.5586 C.3       1 <0>        -0.0507
     12 C6         -4.2648   -0.2724    1.3126 C.3       1 <0>         0.0331
     13 C7         -2.8576   -0.6945    0.9216 C.3       1 <0>         0.1022
     14 C8         -0.7302   -0.5888    1.9795 C.ar      1 <0>         0.1206
     15 C9          4.1329   -0.1473    0.3371 C.2       1 <0>         0.0447
     16 C10         4.7308   -1.3940    0.0290 C.ar      1 <0>         0.0008
     17 C11         4.2501    0.8034   -0.6240 C.2       1 <0>         0.0313
     18 C12         5.3198   -1.3444   -1.2381 C.ar      1 <0>         0.0241
     19 C13         1.9986   -0.1161    1.7338 C.ar      1 <0>         0.0225
     20 C14         3.4261    0.1301    1.6048 C.2       1 <0>         0.1948
     21 C15        -0.0910   -0.8584    0.7748 C.ar      1 <0>        -0.0193
     22 C16        -0.0190   -0.0855    3.0626 C.ar      1 <0>        -0.0193
     23 C17         1.2782   -0.6213    0.6515 C.ar      1 <0>        -0.0475
     24 C18         1.3500    0.1517    2.9393 C.ar      1 <0>        -0.0475
     25 C19         3.7802    2.1703   -0.6673 C.ar      1 <0>        -0.0104
     26 C20         4.8174   -2.6032    0.7604 C.ar      1 <0>        -0.0494
     27 C21         5.9852   -2.4589   -1.7853 C.ar      1 <0>        -0.0058
     28 C22         5.4766   -3.7106    0.2204 C.ar      1 <0>        -0.0195
     29 C23         6.0541   -3.6369   -1.0392 C.ar      1 <0>         0.1180
     30 C24         4.5919    3.1983   -0.1935 C.ar      1 <0>        -0.0501
     31 C25         2.5172    2.4536   -1.1826 C.ar      1 <0>        -0.0501
     32 C26         4.1383    4.5168   -0.2352 C.ar      1 <0>        -0.0196
     33 C27         2.0637    3.7721   -1.2243 C.ar      1 <0>        -0.0196
     34 C28         2.8742    4.8036   -0.7505 C.ar      1 <0>         0.1169
     35 H1         -5.6692   -2.1587    0.0415 H         1 <0>         0.0427
     36 H2         -4.2555   -1.7542   -0.9415 H         1 <0>         0.0427
     37 H3         -6.3097    1.3794    1.0108 H         1 <0>         0.0427
     38 H4         -6.9353   -0.2639    1.1915 H         1 <0>         0.0427
     39 H5         -6.1734   -2.1913   -2.3640 H         1 <0>         0.0278
     40 H6         -5.5334   -0.5621   -2.5716 H         1 <0>         0.0278
     41 H7         -6.8588    1.4291   -1.3610 H         1 <0>         0.0278
     42 H8         -8.2904    0.9888   -0.4320 H         1 <0>         0.0278
     43 H9         -8.0242   -1.3726   -0.9978 H         1 <0>         0.0266
     44 H10        -7.9732   -0.4326   -2.4893 H         1 <0>         0.0266
     45 H11        -4.1969    0.6765    1.8608 H         1 <0>         0.0460
     46 H12        -4.6912   -0.9989    2.0174 H         1 <0>         0.0460
     47 H13        -2.8376   -1.6740    0.4373 H         1 <0>         0.0709
     48 H14        -2.4479    0.0653    0.2424 H         1 <0>         0.0709
     49 H15        -0.6081   -1.2790   -0.0821 H         1 <0>         0.0654
     50 H16        -0.5205    0.1244    4.0030 H         1 <0>         0.0654
     51 H17         1.7397   -0.8537   -0.3031 H         1 <0>         0.0626
     52 H18         1.8862    0.5457    3.7986 H         1 <0>         0.0626
     53 H19         4.3715   -2.6808    1.7492 H         1 <0>         0.0625
     54 H20         6.4356   -2.3988   -2.7725 H         1 <0>         0.0665
     55 H21         5.5324   -4.6305    0.7965 H         1 <0>         0.0654
     56 H22         5.5790    2.9913    0.2129 H         1 <0>         0.0625
     57 H23         1.8733    1.6623   -1.5585 H         1 <0>         0.0625
     58 H24         4.7740    5.3160    0.1358 H         1 <0>         0.0654
     59 H25         1.0771    3.9822   -1.6285 H         1 <0>         0.0654
     60 H26         7.0331   -4.4996   -2.4393 H         1 <0>         0.2921
     61 H27         1.5390    6.1043   -1.1770 H         1 <0>         0.2921
@<TRIPOS>BOND
     1    1   17 1
     2    1   18 1
     3    2   13 1
     4    2   14 1
     5    3   20 2
     6    4   29 1
     7    4   60 1
     8    5   34 1
     9    5   61 1
    10    6    7 1
    11    6    8 1
    12    6   12 1
    13    7    9 1
    14    7   35 1
    15    7   36 1
    16    8   10 1
    17    8   37 1
    18    8   38 1
    19    9   11 1
    20    9   39 1
    21    9   40 1
    22   10   11 1
    23   10   41 1
    24   10   42 1
    25   11   43 1
    26   11   44 1
    27   12   13 1
    28   12   45 1
    29   12   46 1
    30   13   47 1
    31   13   48 1
    32   14   21 ar
    33   14   22 ar
    34   15   16 1
    35   15   17 2
    36   15   20 1
    37   16   18 ar
    38   16   26 ar
    39   17   25 1
    40   18   27 ar
    41   19   20 1
    42   19   23 ar
    43   19   24 ar
    44   21   23 ar
    45   21   49 1
    46   22   24 ar
    47   22   50 1
    48   23   51 1
    49   24   52 1
    50   25   30 ar
    51   25   31 ar
    52   26   28 ar
    53   26   53 1
    54   27   29 ar
    55   27   54 1
    56   28   29 ar
    57   28   55 1
    58   30   32 ar
    59   30   56 1
    60   31   33 ar
    61   31   57 1
    62   32   34 ar
    63   32   58 1
    64   33   34 ar
    65   33   59 1
