@<TRIPOS>MOLECULE
DB00504
   46    49     0     0     0
SMALL
USER_CHARGES

@<TRIPOS>ATOM
      1 O1         -3.1438   -3.7905   -0.9870 O.3       1 <0>        -0.5068
      2 N1          2.0564    0.7092    0.0791 N.3       1 <0>        -0.2952
      3 C1         -0.7593    0.5483   -0.7177 C.3       1 <0>         0.0015
      4 C2         -0.2409    1.4872    0.4081 C.3       1 <0>        -0.0154
      5 C3          0.9754    0.8242    1.0834 C.3       1 <0>         0.0183
      6 C4          0.3956    0.3777   -1.7425 C.3       1 <0>        -0.0302
      7 C5         -1.9534    1.2585   -1.4131 C.3       1 <0>        -0.0430
      8 C6         -1.3482    1.8954    1.4003 C.3       1 <0>        -0.0480
      9 C7         -1.0939   -0.8471   -0.1596 C.ar      1 <0>        -0.0342
     10 C8          0.5544   -0.4922    1.7693 C.3       1 <0>        -0.0114
     11 C9          1.7079   -0.0920   -1.0969 C.3       1 <0>         0.0003
     12 C10        -3.0624    1.6571   -0.4380 C.3       1 <0>        -0.0522
     13 C11        -2.5270    2.5446    0.6805 C.3       1 <0>        -0.0527
     14 C12        -0.4481   -1.3250    1.0033 C.ar      1 <0>        -0.0419
     15 C13         3.3349    0.2922    0.6461 C.3       1 <0>         0.0171
     16 C14        -1.9869   -1.7087   -0.8230 C.ar      1 <0>        -0.0162
     17 C15        -0.7472   -2.6070    1.4959 C.ar      1 <0>        -0.0548
     18 C16        -2.2689   -2.9831   -0.3269 C.ar      1 <0>         0.1172
     19 C17        -1.6545   -3.4301    0.8357 C.ar      1 <0>        -0.0199
     20 C18         4.4028    0.4611   -0.3827 C.2       1 <0>        -0.0772
     21 C19         5.1766   -0.5368   -0.8249 C.2       1 <0>        -0.1014
     22 H1          0.1063    2.4248   -0.0555 H         1 <0>         0.0324
     23 H2          1.3381    1.5062    1.8644 H         1 <0>         0.0469
     24 H3          0.5853    1.3393   -2.2399 H         1 <0>         0.0286
     25 H4          0.1121   -0.3272   -2.5348 H         1 <0>         0.0286
     26 H5         -2.3749    0.6548   -2.2235 H         1 <0>         0.0274
     27 H6         -1.5907    2.1758   -1.8983 H         1 <0>         0.0274
     28 H7         -0.9415    2.6016    2.1340 H         1 <0>         0.0269
     29 H8         -1.7193    1.0360    1.9685 H         1 <0>         0.0269
     30 H9          0.0953   -0.2414    2.7354 H         1 <0>         0.0328
     31 H10         1.4290   -1.1060    2.0094 H         1 <0>         0.0328
     32 H11         1.6458   -1.1582   -0.8466 H         1 <0>         0.0427
     33 H12         2.4673   -0.0065   -1.8826 H         1 <0>         0.0427
     34 H13        -3.5301    0.7636   -0.0089 H         1 <0>         0.0266
     35 H14        -3.8487    2.1938   -0.9813 H         1 <0>         0.0266
     36 H15        -2.2115    3.5082    0.2617 H         1 <0>         0.0265
     37 H16        -3.3268    2.7575    1.3985 H         1 <0>         0.0265
     38 H17         3.5941    0.9281    1.5010 H         1 <0>         0.0470
     39 H18         3.3052   -0.7426    1.0061 H         1 <0>         0.0470
     40 H19        -2.4675   -1.3977   -1.7460 H         1 <0>         0.0657
     41 H20        -0.2645   -2.9710    2.4001 H         1 <0>         0.0622
     42 H21        -1.8702   -4.4196    1.2284 H         1 <0>         0.0654
     43 H22         4.5708    1.4596   -0.7799 H         1 <0>         0.0579
     44 H23        -3.4768   -3.3225   -1.7719 H         1 <0>         0.2921
     45 H24         5.9432   -0.3486   -1.5688 H         1 <0>         0.0532
     46 H25         5.0604   -1.5508   -0.4588 H         1 <0>         0.0532
@<TRIPOS>BOND
     1    1   18 1
     2    1   44 1
     3    2    5 1
     4    2   11 1
     5    2   15 1
     6    3    4 1
     7    3    6 1
     8    3    7 1
     9    3    9 1
    10    4    5 1
    11    4    8 1
    12    4   22 1
    13    5   10 1
    14    5   23 1
    15    6   11 1
    16    6   24 1
    17    6   25 1
    18    7   12 1
    19    7   26 1
    20    7   27 1
    21    8   13 1
    22    8   28 1
    23    8   29 1
    24    9   14 ar
    25    9   16 ar
    26   10   14 1
    27   10   30 1
    28   10   31 1
    29   11   32 1
    30   11   33 1
    31   12   13 1
    32   12   34 1
    33   12   35 1
    34   13   36 1
    35   13   37 1
    36   14   17 ar
    37   15   20 1
    38   15   38 1
    39   15   39 1
    40   16   18 ar
    41   16   40 1
    42   17   19 ar
    43   17   41 1
    44   18   19 ar
    45   19   42 1
    46   20   21 2
    47   20   43 1
    48   21   45 1
    49   21   46 1
