@<TRIPOS>MOLECULE
DB00957
   58    61     0     0     0
SMALL
USER_CHARGES

@<TRIPOS>ATOM
      1 O1         -3.9909   -0.5190   -0.2284 O.3       1 <0>        -0.4447
      2 O2         -5.3370    0.6273   -1.7152 O.2       1 <0>        -0.2511
      3 O3          6.6351   -1.6769   -1.5742 O.3       1 <0>        -0.4090
      4 N1          6.4118   -0.3394   -1.2459 N.2       1 <0>        -0.0921
      5 C1         -1.5628   -0.1367    0.1209 C.3       1 <0>         0.0249
      6 C2         -0.6849    1.0808   -0.2503 C.3       1 <0>        -0.0275
      7 C3          0.6498    1.1021    0.4995 C.3       1 <0>        -0.0339
      8 C4          1.4443   -0.2037    0.1530 C.3       1 <0>        -0.0314
      9 C5         -2.8517    0.1876   -0.6975 C.3       1 <0>         0.1787
     10 C6         -0.7947   -1.4164   -0.2609 C.3       1 <0>        -0.0423
     11 C7         -1.6333    2.2672   -0.0942 C.3       1 <0>        -0.0447
     12 C8          0.5976   -1.4745    0.3957 C.3       1 <0>        -0.0487
     13 C9         -3.0190    1.7184   -0.4951 C.3       1 <0>        -0.0005
     14 C10         2.7894   -0.1992    0.9293 C.3       1 <0>        -0.0161
     15 C11         1.4768    2.3614    0.1728 C.3       1 <0>        -0.0460
     16 C12        -1.9086   -0.2130    1.6371 C.3       1 <0>        -0.0454
     17 C13         2.8501    2.3355    0.8498 C.3       1 <0>        -0.0309
     18 C14         3.5504    1.0474    0.5097 C.2       1 <0>        -0.0644
     19 C15         3.6584   -1.4596    0.7896 C.3       1 <0>        -0.0407
     20 C16        -2.7182   -0.1090   -2.1380 C.1       1 <0>        -0.0576
     21 C17        -2.7349   -1.4386    1.9236 C.3       1 <0>        -0.0646
     22 C18         4.4154   -1.4982   -0.5260 C.3       1 <0>        -0.0067
     23 C19         4.7013    1.0349   -0.1803 C.2       1 <0>        -0.0378
     24 C20         5.2594   -0.2520   -0.6650 C.2       1 <0>         0.0799
     25 C21        -5.1780   -0.1995   -0.8274 C.2       1 <0>         0.3054
     26 C22        -2.6102   -0.3501   -3.3089 C.1       1 <0>        -0.1152
     27 C23        -6.2846   -1.0188   -0.2358 C.3       1 <0>         0.0333
     28 H1         -0.4333    1.0268   -1.3214 H         1 <0>         0.0310
     29 H2          0.4638    1.1249    1.5803 H         1 <0>         0.0307
     30 H3          1.6683   -0.1797   -0.9246 H         1 <0>         0.0309
     31 H4         -0.6211   -1.4340   -1.3444 H         1 <0>         0.0272
     32 H5         -1.3348   -2.3428   -0.0536 H         1 <0>         0.0272
     33 H6         -1.3401    3.1062   -0.7339 H         1 <0>         0.0270
     34 H7         -1.6537    2.6328    0.9386 H         1 <0>         0.0270
     35 H8          0.5006   -1.6605    1.4712 H         1 <0>         0.0268
     36 H9          1.1159   -2.3455   -0.0215 H         1 <0>         0.0268
     37 H10        -3.7409    1.9478    0.2984 H         1 <0>         0.0314
     38 H11        -3.3668    2.2325   -1.3993 H         1 <0>         0.0314
     39 H12         2.5570   -0.1123    2.0008 H         1 <0>         0.0349
     40 H13         0.9399    3.2599    0.4988 H         1 <0>         0.0271
     41 H14         1.6072    2.4463   -0.9141 H         1 <0>         0.0271
     42 H15        -2.4595    0.6744    1.9684 H         1 <0>         0.0270
     43 H16        -1.0107   -0.2443    2.2609 H         1 <0>         0.0270
     44 H17         2.7368    2.4130    1.9379 H         1 <0>         0.0310
     45 H18         3.4290    3.2089    0.5278 H         1 <0>         0.0310
     46 H19         3.0705   -2.3729    0.9195 H         1 <0>         0.0275
     47 H20         4.3913   -1.4620    1.6094 H         1 <0>         0.0275
     48 H21        -3.6987   -1.1456    2.3573 H         1 <0>         0.0230
     49 H22        -2.9495   -2.1176    1.0980 H         1 <0>         0.0230
     50 H23        -2.2367   -2.0411    2.6933 H         1 <0>         0.0230
     51 H24         3.7268   -1.5467   -1.3774 H         1 <0>         0.0329
     52 H25         4.9842   -2.4312   -0.5077 H         1 <0>         0.0329
     53 H26         5.2169    1.9451   -0.4649 H         1 <0>         0.0636
     54 H27        -2.5141   -0.5640   -4.3477 H         1 <0>         0.1229
     55 H28        -6.3694   -0.8083    0.8332 H         1 <0>         0.0342
     56 H29        -6.0897   -2.0807   -0.4050 H         1 <0>         0.0342
     57 H30        -7.2296   -0.7558   -0.7195 H         1 <0>         0.0342
     58 H31         7.5094   -1.6316   -1.9966 H         1 <0>         0.3278
@<TRIPOS>BOND
     1    1    9 1
     2    1   25 1
     3    2   25 2
     4    3    4 1
     5    3   58 1
     6    4   24 2
     7    5    6 1
     8    5    9 1
     9    5   10 1
    10    5   16 1
    11    6    7 1
    12    6   11 1
    13    6   28 1
    14    7    8 1
    15    7   15 1
    16    7   29 1
    17    8   12 1
    18    8   14 1
    19    8   30 1
    20    9   13 1
    21    9   20 1
    22   10   12 1
    23   10   31 1
    24   10   32 1
    25   11   13 1
    26   11   33 1
    27   11   34 1
    28   12   35 1
    29   12   36 1
    30   13   37 1
    31   13   38 1
    32   14   18 1
    33   14   19 1
    34   14   39 1
    35   15   17 1
    36   15   40 1
    37   15   41 1
    38   16   21 1
    39   16   42 1
    40   16   43 1
    41   17   18 1
    42   17   44 1
    43   17   45 1
    44   18   23 2
    45   19   22 1
    46   19   46 1
    47   19   47 1
    48   20   26 3
    49   21   48 1
    50   21   49 1
    51   21   50 1
    52   22   24 1
    53   22   51 1
    54   22   52 1
    55   23   24 1
    56   23   53 1
    57   25   27 1
    58   26   54 1
    59   27   55 1
    60   27   56 1
    61   27   57 1
