@<TRIPOS>MOLECULE
DB00550
   21    21     0     0     0
SMALL
USER_CHARGES

@<TRIPOS>ATOM
      1 S1          3.2470    2.6766   -0.2041 S.2       1 <0>        -0.0130
      2 O1          3.2030   -2.3102   -0.2690 O.2       1 <0>        -0.2678
      3 N1          1.1395    1.0978    0.2437 N.pl3     1 <0>        -0.3387
      4 N2          3.1560    0.0025   -0.2254 N.am      1 <0>        -0.3028
      5 C1         -0.9717   -0.0365    0.6995 C.3       1 <0>        -0.0125
      6 C2          0.4867   -0.1069    0.3712 C.2       1 <0>         0.0231
      7 C3         -1.8319    0.0118   -0.5598 C.3       1 <0>        -0.0506
      8 C4          1.1402   -1.2659    0.2067 C.2       1 <0>         0.0220
      9 C5         -3.3124    0.0573   -0.2147 C.3       1 <0>        -0.0649
     10 C6          2.4802    1.1997   -0.0555 C.2       1 <0>         0.1581
     11 C7          2.5886   -1.2585   -0.1171 C.2       1 <0>         0.2522
     12 H1         -1.2559   -0.9122    1.2982 H         1 <0>         0.0327
     13 H2         -1.1771    0.8347    1.3347 H         1 <0>         0.0327
     14 H3         -1.5770    0.8949   -1.1581 H         1 <0>         0.0266
     15 H4         -1.6394   -0.8677   -1.1863 H         1 <0>         0.0266
     16 H5          0.6033    1.9506    0.3747 H         1 <0>         0.1675
     17 H6          0.6478   -2.2270    0.3011 H         1 <0>         0.0689
     18 H7         -3.5491    0.9438    0.3826 H         1 <0>         0.0230
     19 H8         -3.6110   -0.8300    0.3528 H         1 <0>         0.0230
     20 H9         -3.9133    0.0936   -1.1287 H         1 <0>         0.0230
     21 H10         4.1464    0.0516   -0.4464 H         1 <0>         0.1708
@<TRIPOS>BOND
     1    1   10 2
     2    2   11 2
     3    3    6 1
     4    3   10 1
     5    3   16 1
     6    4   10 1
     7    4   11 am
     8    4   21 1
     9    5    6 1
    10    5    7 1
    11    5   12 1
    12    5   13 1
    13    6    8 2
    14    7    9 1
    15    7   14 1
    16    7   15 1
    17    8   11 1
    18    8   17 1
    19    9   18 1
    20    9   19 1
    21    9   20 1
