@<TRIPOS>MOLECULE
DB00400
   41    43     0     0     0
SMALL
USER_CHARGES

@<TRIPOS>ATOM
      1 Cl1         2.1893   -1.7248   -2.8381 Cl        1 <0>        -0.0759
      2 O1         -0.3402   -0.7191   -1.4534 O.3       1 <0>        -0.4674
      3 O2         -2.0557   -2.5004   -0.2071 O.3       1 <0>        -0.4947
      4 O3         -1.1358    0.5551    1.7642 O.2       1 <0>        -0.2870
      5 O4         -5.4197    0.7722   -0.2794 O.2       1 <0>        -0.2926
      6 O5          1.6717    0.3390    2.6761 O.3       1 <0>        -0.4942
      7 O6          4.3931   -1.4541   -0.8079 O.3       1 <0>        -0.4934
      8 C1         -1.3702   -0.1554   -0.5893 C.3       1 <0>         0.2313
      9 C2         -1.9393    1.1099   -1.2729 C.3       1 <0>         0.0177
     10 C3         -3.1946    1.6168   -0.5581 C.3       1 <0>         0.0170
     11 C4         -0.6619    0.1271    0.7296 C.2       1 <0>         0.2213
     12 C5         -2.4533   -1.1810   -0.3423 C.2       1 <0>         0.1521
     13 C6         -0.9211    2.2446   -1.4288 C.3       1 <0>        -0.0575
     14 C7          0.7238   -0.2191    0.5495 C.ar      1 <0>         0.1068
     15 C8          0.8314   -0.6978   -0.7397 C.ar      1 <0>         0.1585
     16 C9         -4.2202    0.5195   -0.3815 C.2       1 <0>         0.1598
     17 C10        -3.7559   -0.8834   -0.2654 C.2       1 <0>         0.0228
     18 C11         1.7959   -0.1341    1.4132 C.ar      1 <0>         0.1378
     19 C12         2.0493   -1.1237   -1.2312 C.ar      1 <0>         0.1250
     20 C13         3.0337   -0.5592    0.9288 C.ar      1 <0>         0.0242
     21 C14         3.1600   -1.0503   -0.3839 C.ar      1 <0>         0.1454
     22 C15        -2.4437   -3.0099    1.0520 C.3       1 <0>         0.0785
     23 C16         1.8538    1.7437    2.8714 C.3       1 <0>         0.0788
     24 C17         5.2172   -0.4698   -1.4262 C.3       1 <0>         0.0789
     25 H1         -2.2288    0.8230   -2.2956 H         1 <0>         0.0350
     26 H2         -3.6547    2.4131   -1.1551 H         1 <0>         0.0349
     27 H3         -2.9602    2.0276    0.4299 H         1 <0>         0.0349
     28 H4         -0.5858    2.6249   -0.4586 H         1 <0>         0.0234
     29 H5         -0.0425    1.9156   -1.9921 H         1 <0>         0.0234
     30 H6         -1.3647    3.0833   -1.9768 H         1 <0>         0.0234
     31 H7         -4.5226   -1.6360   -0.1195 H         1 <0>         0.0687
     32 H8          3.9097   -0.5123    1.5722 H         1 <0>         0.0692
     33 H9         -1.8802   -3.9323    1.2260 H         1 <0>         0.0660
     34 H10        -3.5060   -3.2744    1.0708 H         1 <0>         0.0660
     35 H11        -2.2046   -2.3225    1.8722 H         1 <0>         0.0660
     36 H12         1.1446    2.3143    2.2635 H         1 <0>         0.0660
     37 H13         2.8797    2.0312    2.6213 H         1 <0>         0.0660
     38 H14         1.6728    1.9684    3.9260 H         1 <0>         0.0660
     39 H15         5.4902    0.3051   -0.7029 H         1 <0>         0.0660
     40 H16         4.7143   -0.0164   -2.2859 H         1 <0>         0.0660
     41 H17         6.1312   -0.9582   -1.7749 H         1 <0>         0.0660
@<TRIPOS>BOND
     1    1   19 1
     2    2    8 1
     3    2   15 1
     4    3   12 1
     5    3   22 1
     6    4   11 2
     7    5   16 2
     8    6   18 1
     9    6   23 1
    10    7   21 1
    11    7   24 1
    12    8    9 1
    13    8   11 1
    14    8   12 1
    15    9   10 1
    16    9   13 1
    17    9   25 1
    18   10   16 1
    19   10   26 1
    20   10   27 1
    21   11   14 1
    22   12   17 2
    23   13   28 1
    24   13   29 1
    25   13   30 1
    26   14   15 ar
    27   14   18 ar
    28   15   19 ar
    29   16   17 1
    30   17   31 1
    31   18   20 ar
    32   19   21 ar
    33   20   21 ar
    34   20   32 1
    35   22   33 1
    36   22   34 1
    37   22   35 1
    38   23   36 1
    39   23   37 1
    40   23   38 1
    41   24   39 1
    42   24   40 1
    43   24   41 1
