@<TRIPOS>MOLECULE
DB00796
   79    84     0     0     0
SMALL
USER_CHARGES

@<TRIPOS>ATOM
      1 O1         -2.6996    1.7918    0.1351 O.3       1 <0>        -0.4304
      2 O2         -0.6135    2.5122    0.0047 O.3       1 <0>        -0.3941
      3 O3         -1.9945    2.7865   -1.8208 O.2       1 <0>        -0.2027
      4 O4          1.7397    2.8368   -0.0642 O.3       1 <0>        -0.4213
      5 O5          5.0801   -2.0135   -0.5667 O.3       1 <0>        -0.4638
      6 O6          2.9327    3.3906   -1.9558 O.2       1 <0>        -0.2448
      7 N1          4.2536    0.2046   -0.5540 N.pl3     1 <0>        -0.2888
      8 N2          6.0415   -0.2808    0.6740 N.2       1 <0>        -0.1949
      9 N3         -2.4685   -4.0657   -0.9141 N.2       1 <0>        -0.1331
     10 N4         -0.5249   -4.2143    0.2383 N.2       1 <0>        -0.1080
     11 N5         -1.5730   -4.9011   -1.4589 N.pl3     1 <0>        -0.1761
     12 N6         -0.4065   -5.0202   -0.8098 N.2       1 <0>        -0.0485
     13 C1         -3.9944    1.5945   -0.4228 C.3       1 <0>         0.1065
     14 C2         -5.0458    1.6657    0.6834 C.3       1 <0>        -0.0156
     15 C3         -4.0382    0.2543   -1.1558 C.3       1 <0>        -0.0156
     16 C4         -6.4426    1.3634    0.1504 C.3       1 <0>        -0.0497
     17 C5         -5.4347   -0.0483   -1.6889 C.3       1 <0>        -0.0497
     18 C6         -6.4860    0.0253   -0.5840 C.3       1 <0>        -0.0528
     19 C7         -1.7880    2.4038   -0.6771 C.2       1 <0>         0.5133
     20 C8          4.6071    1.3796    0.0582 C.ar      1 <0>         0.0860
     21 C9          3.1468   -0.0040   -1.4606 C.3       1 <0>         0.0531
     22 C10         0.4808    3.1382   -0.6982 C.3       1 <0>         0.2501
     23 C11         5.7256    1.0505    0.8190 C.ar      1 <0>         0.0935
     24 C12         4.0612    2.6630    0.0131 C.ar      1 <0>         0.0847
     25 C13         5.1397   -0.7569   -0.1551 C.2       1 <0>         0.2995
     26 C14         1.8975   -0.3988   -0.7204 C.ar      1 <0>        -0.0276
     27 C15         6.3493    2.0485    1.5867 C.ar      1 <0>        -0.0341
     28 C16         2.8675    3.0055   -0.7992 C.2       1 <0>         0.3441
     29 C17         4.6949    3.6439    0.7831 C.ar      1 <0>        -0.0456
     30 C18         1.9181   -0.5190    0.6692 C.ar      1 <0>        -0.0563
     31 C19         0.7185   -0.6441   -1.4244 C.ar      1 <0>        -0.0563
     32 C20         0.2459    4.6409   -0.6434 C.3       1 <0>         0.0102
     33 C21         5.8187    3.3442    1.5566 C.ar      1 <0>        -0.0588
     34 C22        -0.4194   -1.1294    0.6508 C.ar      1 <0>        -0.0172
     35 C23         0.7596   -0.8842    1.3548 C.ar      1 <0>        -0.0537
     36 C24        -0.4399   -1.0094   -0.7387 C.ar      1 <0>        -0.0537
     37 C25        -1.6212   -1.5072    1.3619 C.ar      1 <0>        -0.0071
     38 C26         6.0527   -2.9525   -0.0957 C.3       1 <0>         0.0899
     39 C27        -2.2648   -2.7206    1.1189 C.ar      1 <0>         0.0304
     40 C28        -2.1345   -0.6232    2.3110 C.ar      1 <0>        -0.0534
     41 C29        -3.4217   -3.0499    1.8251 C.ar      1 <0>        -0.0503
     42 C30         5.7588   -4.3104   -0.6968 C.3       1 <0>        -0.0306
     43 C31        -3.2914   -0.9526    3.0171 C.ar      1 <0>        -0.0611
     44 C32        -1.7668   -3.6596    0.1471 C.2       1 <0>         0.2049
     45 C33        -3.9351   -2.1659    2.7742 C.ar      1 <0>        -0.0611
     46 H1         -4.2272    2.3990   -1.1343 H         1 <0>         0.0735
     47 H2         -4.7950    0.9610    1.4832 H         1 <0>         0.0301
     48 H3         -5.0272    2.6589    1.1480 H         1 <0>         0.0301
     49 H4         -3.3180    0.2505   -1.9818 H         1 <0>         0.0301
     50 H5         -3.7265   -0.5481   -0.4799 H         1 <0>         0.0301
     51 H6         -6.7544    2.1639   -0.5317 H         1 <0>         0.0266
     52 H7         -7.1594    1.3525    0.9790 H         1 <0>         0.0266
     53 H8         -5.4476   -1.0450   -2.1439 H         1 <0>         0.0266
     54 H9         -5.6864    0.6683   -2.4803 H         1 <0>         0.0266
     55 H10        -7.4828   -0.1280   -1.0126 H         1 <0>         0.0265
     56 H11        -6.3172   -0.7882    0.1326 H         1 <0>         0.0265
     57 H12         2.9986    0.8797   -2.0804 H         1 <0>         0.0543
     58 H13         3.4301   -0.8165   -2.1413 H         1 <0>         0.0543
     59 H14         0.5033    2.7704   -1.7316 H         1 <0>         0.1205
     60 H15         7.2229    1.8257    2.1912 H         1 <0>         0.0639
     61 H16         4.3115    4.6621    0.7862 H         1 <0>         0.0626
     62 H17         2.7939   -0.3468    1.2835 H         1 <0>         0.0621
     63 H18         0.6918   -0.5484   -2.5065 H         1 <0>         0.0621
     64 H19         6.2892    4.1278    2.1450 H         1 <0>         0.0618
     65 H20        -0.7008    4.9298   -1.1086 H         1 <0>         0.0301
     66 H21         1.0542    5.1906   -1.1353 H         1 <0>         0.0301
     67 H22         0.2124    4.9824    0.3977 H         1 <0>         0.0301
     68 H23         0.7986   -0.9787    2.4376 H         1 <0>         0.0624
     69 H24        -1.3470   -1.1799   -1.3118 H         1 <0>         0.0624
     70 H25         6.0045   -3.0134    0.9977 H         1 <0>         0.0695
     71 H26         7.0545   -2.6230   -0.3942 H         1 <0>         0.0695
     72 H27        -1.6544    0.3314    2.5145 H         1 <0>         0.0624
     73 H28        -3.9380   -3.9916    1.6530 H         1 <0>         0.0625
     74 H29         6.4845   -5.0542   -0.3567 H         1 <0>         0.0262
     75 H30         5.7877   -4.2620   -1.7903 H         1 <0>         0.0262
     76 H31         4.7534   -4.6446   -0.4200 H         1 <0>         0.0262
     77 H32        -3.6923   -0.2636    3.7546 H         1 <0>         0.0618
     78 H33        -4.8364   -2.4217    3.3235 H         1 <0>         0.0618
     79 H34        -1.7663   -5.4125   -2.3134 H         1 <0>         0.2143
@<TRIPOS>BOND
     1    1   13 1
     2    1   19 1
     3    2   19 1
     4    2   22 1
     5    3   19 2
     6    4   22 1
     7    4   28 1
     8    5   25 1
     9    5   38 1
    10    6   28 2
    11    7   20 1
    12    7   21 1
    13    7   25 1
    14    8   23 1
    15    8   25 2
    16    9   11 1
    17    9   44 2
    18   10   12 2
    19   10   44 1
    20   11   12 1
    21   11   79 1
    22   13   14 1
    23   13   15 1
    24   13   46 1
    25   14   16 1
    26   14   47 1
    27   14   48 1
    28   15   17 1
    29   15   49 1
    30   15   50 1
    31   16   18 1
    32   16   51 1
    33   16   52 1
    34   17   18 1
    35   17   53 1
    36   17   54 1
    37   18   55 1
    38   18   56 1
    39   20   23 ar
    40   20   24 ar
    41   21   26 1
    42   21   57 1
    43   21   58 1
    44   22   32 1
    45   22   59 1
    46   23   27 ar
    47   24   28 1
    48   24   29 ar
    49   26   30 ar
    50   26   31 ar
    51   27   33 ar
    52   27   60 1
    53   29   33 ar
    54   29   61 1
    55   30   35 ar
    56   30   62 1
    57   31   36 ar
    58   31   63 1
    59   32   65 1
    60   32   66 1
    61   32   67 1
    62   33   64 1
    63   34   35 ar
    64   34   36 ar
    65   34   37 1
    66   35   68 1
    67   36   69 1
    68   37   39 ar
    69   37   40 ar
    70   38   42 1
    71   38   70 1
    72   38   71 1
    73   39   41 ar
    74   39   44 1
    75   40   43 ar
    76   40   72 1
    77   41   45 ar
    78   41   73 1
    79   42   74 1
    80   42   75 1
    81   42   76 1
    82   43   45 ar
    83   43   77 1
    84   45   78 1
