@<TRIPOS>MOLECULE
DB00594
   23    23     0     0     0
SMALL
USER_CHARGES

@<TRIPOS>ATOM
      1 Cl1        -2.2108   -3.0761    0.6733 Cl        1 <0>        -0.0584
      2 O1          1.2021    1.7327    1.7147 O.2       1 <0>        -0.2465
      3 N1         -2.4051    0.8058   -0.2114 N.ar      1 <0>        -0.2127
      4 N2         -0.6276   -1.0522    0.9089 N.ar      1 <0>        -0.2221
      5 N3         -0.7847    2.5141    0.1063 N.pl3     1 <0>        -0.3412
      6 N4          1.9736   -0.3771    1.1613 N.2       1 <0>         0.0015
      7 N5         -3.9995   -0.9234   -0.5122 N.pl3     1 <0>        -0.3407
      8 N6          3.6838   -1.3967   -0.1923 N.pl3     1 <0>        -0.2907
      9 N7          2.5110    0.3997   -0.9672 N.pl3     1 <0>        -0.2907
     10 C1         -0.3390    0.2406    0.7604 C.ar      1 <0>         0.1858
     11 C2         -1.1796    1.1621    0.2219 C.ar      1 <0>         0.1508
     12 C3         -2.7260   -0.4960   -0.0748 C.ar      1 <0>         0.1555
     13 C4         -1.8532   -1.4087    0.4754 C.ar      1 <0>         0.1695
     14 C5          1.0200    0.6130    1.2461 C.2       1 <0>         0.3621
     15 C6          2.6923   -0.4794    0.0740 C.2       1 <0>         0.3748
     16 H1         -1.4589    3.1516   -0.2998 H         1 <0>         0.1438
     17 H2          0.1970    2.7246   -0.0233 H         1 <0>         0.1438
     18 H3         -4.6092   -0.2246   -0.9182 H         1 <0>         0.1438
     19 H4         -4.1108   -1.8870   -0.8019 H         1 <0>         0.1438
     20 H5          3.9349   -2.1078    0.4860 H         1 <0>         0.2545
     21 H6          4.1885   -1.3918   -1.0720 H         1 <0>         0.2545
     22 H7          1.8341    1.1535   -0.9428 H         1 <0>         0.2545
     23 H8          3.0671    0.3231   -1.8124 H         1 <0>         0.2545
@<TRIPOS>BOND
     1    1   13 1
     2    2   14 2
     3    3   11 ar
     4    3   12 ar
     5    4   10 ar
     6    4   13 ar
     7    5   11 1
     8    5   16 1
     9    5   17 1
    10    6   14 1
    11    6   15 2
    12    7   12 1
    13    7   18 1
    14    7   19 1
    15    8   15 1
    16    8   20 1
    17    8   21 1
    18    9   15 1
    19    9   22 1
    20    9   23 1
    21   10   11 ar
    22   10   14 1
    23   12   13 ar
