@<TRIPOS>MOLECULE
DB00126
   20    20     0     0     0
SMALL
USER_CHARGES

@<TRIPOS>ATOM
      1 O1         -0.4721    1.0609    0.8064 O.3       1 <0>        -0.4450
      2 O2          0.7152    0.2352   -1.5445 O.3       1 <0>        -0.3854
      3 O3         -1.4920   -2.2396   -0.1831 O.3       1 <0>        -0.5042
      4 O4          3.3523    0.1649   -0.6867 O.3       1 <0>        -0.3923
      5 O5         -3.6007   -0.1583   -0.4878 O.3       1 <0>        -0.4988
      6 O6         -2.3448    2.3511    0.4259 O.2       1 <0>        -0.2414
      7 C1         -0.1288   -0.3284    0.6288 C.3       1 <0>         0.1912
      8 C2          1.0535   -0.4200   -0.3227 C.3       1 <0>         0.1222
      9 C3         -1.3761   -0.9095    0.0945 C.2       1 <0>         0.1863
     10 C4          2.2897    0.2571    0.2562 C.3       1 <0>         0.0741
     11 C5         -2.3302    0.0063   -0.0395 C.2       1 <0>         0.2437
     12 C6         -1.7635    1.2805    0.4075 C.2       1 <0>         0.3783
     13 H1          0.1133   -0.7526    1.6097 H         1 <0>         0.0845
     14 H2          1.2861   -1.4611   -0.5725 H         1 <0>         0.0658
     15 H3          2.1159    1.3218    0.4433 H         1 <0>         0.0584
     16 H4          2.6036   -0.2262    1.1865 H         1 <0>         0.0584
     17 H5          0.5393    1.1706   -1.3447 H         1 <0>         0.2101
     18 H6         -0.6530   -2.6650    0.0641 H         1 <0>         0.2920
     19 H7          4.1254    0.5995   -0.2879 H         1 <0>         0.2095
     20 H8         -4.0331    0.7126   -0.4534 H         1 <0>         0.2925
@<TRIPOS>BOND
     1    1    7 1
     2    1   12 1
     3    2    8 1
     4    2   17 1
     5    3    9 1
     6    3   18 1
     7    4   10 1
     8    4   19 1
     9    5   11 1
    10    5   20 1
    11    6   12 2
    12    7    8 1
    13    7    9 1
    14    7   13 1
    15    8   10 1
    16    8   14 1
    17    9   11 2
    18   10   15 1
    19   10   16 1
    20   11   12 1
