@<TRIPOS>MOLECULE
DB00983
   49    50     0     0     0
SMALL
USER_CHARGES

@<TRIPOS>ATOM
      1 O1         -2.0515    3.8190   -0.9263 O.3       1 <0>        -0.3859
      2 O2          2.7186   -3.5458   -0.7029 O.3       1 <0>        -0.4951
      3 O3          3.6721    1.4815   -1.7472 O.3       1 <0>        -0.5049
      4 O4          2.0675    2.9411    2.8898 O.2       1 <0>        -0.2792
      5 N1         -2.1262    0.3285    0.3233 N.3       1 <0>        -0.3104
      6 N2          3.1526    2.2557    0.9015 N.am      1 <0>        -0.2852
      7 C1         -3.0275   -0.8024    0.0842 C.3       1 <0>         0.0089
      8 C2         -2.5013   -2.0454    0.8248 C.3       1 <0>        -0.0125
      9 C3         -2.5552    1.4937   -0.4320 C.3       1 <0>         0.0264
     10 C4         -1.6167    2.6808   -0.1835 C.3       1 <0>         0.0927
     11 C5         -4.4320   -0.4021    0.5364 C.3       1 <0>        -0.0494
     12 C6         -1.1043   -2.4465    0.4156 C.ar      1 <0>        -0.0457
     13 C7         -0.1969    2.3607   -0.5968 C.ar      1 <0>        -0.0160
     14 C8          0.8178    2.4557    0.3398 C.ar      1 <0>        -0.0312
     15 C9         -0.0197   -1.9180    1.0969 C.ar      1 <0>        -0.0551
     16 C10        -0.9331   -3.3363   -0.6326 C.ar      1 <0>        -0.0551
     17 C11         0.0565    1.9790   -1.9029 C.ar      1 <0>        -0.0525
     18 C12         2.1265    2.1600   -0.0416 C.ar      1 <0>         0.0755
     19 C13         1.3652    1.6830   -2.2843 C.ar      1 <0>        -0.0180
     20 C14         1.2708   -2.2890    0.7197 C.ar      1 <0>        -0.0197
     21 C15         0.3576   -3.7075   -1.0097 C.ar      1 <0>        -0.0197
     22 C16         2.4002    1.7737   -1.3537 C.ar      1 <0>         0.1380
     23 C17         1.4596   -3.1838   -0.3335 C.ar      1 <0>         0.1201
     24 C18         3.0528    2.6230    2.2390 C.2       1 <0>         0.2042
     25 C19         3.8003   -2.9732    0.0303 C.3       1 <0>         0.0788
     26 H1         -3.0502   -1.0340   -0.9889 H         1 <0>         0.0461
     27 H2         -2.5254   -1.8784    1.9109 H         1 <0>         0.0328
     28 H3         -3.1822   -2.8896    0.6511 H         1 <0>         0.0328
     29 H4         -2.6240    1.2688   -1.5035 H         1 <0>         0.0453
     30 H5         -3.5499    1.8427   -0.1331 H         1 <0>         0.0453
     31 H6         -2.0982    0.5505    1.3183 H         1 <0>         0.1223
     32 H7         -1.6611    2.9603    0.8764 H         1 <0>         0.0656
     33 H8         -5.0728   -1.2903    0.5885 H         1 <0>         0.0245
     34 H9         -4.4324    0.0505    1.5347 H         1 <0>         0.0245
     35 H10        -4.9230    0.2801   -0.1645 H         1 <0>         0.0245
     36 H11         0.5424    2.7590    1.3395 H         1 <0>         0.0641
     37 H12        -0.1545   -1.2242    1.9220 H         1 <0>         0.0621
     38 H13        -1.7850   -3.7475   -1.1664 H         1 <0>         0.0621
     39 H14        -0.7336    1.9152   -2.6450 H         1 <0>         0.0622
     40 H15        -1.3685    4.5075   -0.8522 H         1 <0>         0.2103
     41 H16         1.5719    1.3852   -3.3087 H         1 <0>         0.0655
     42 H17         2.0814   -1.8442    1.2867 H         1 <0>         0.0654
     43 H18         0.4984   -4.4042   -1.8314 H         1 <0>         0.0654
     44 H19         4.0957    2.0556    0.5865 H         1 <0>         0.1546
     45 H20         4.2242    1.2820   -0.9762 H         1 <0>         0.2922
     46 H21         4.0538    2.6002    2.7031 H         1 <0>         0.1255
     47 H22         3.8346   -1.8846   -0.0879 H         1 <0>         0.0660
     48 H23         4.7269   -3.3703   -0.3969 H         1 <0>         0.0660
     49 H24         3.7778   -3.2756    1.0829 H         1 <0>         0.0660
@<TRIPOS>BOND
     1    1   10 1
     2    1   40 1
     3    2   23 1
     4    2   25 1
     5    3   22 1
     6    3   45 1
     7    4   24 2
     8    5    7 1
     9    5    9 1
    10    5   31 1
    11    6   18 1
    12    6   24 am
    13    6   44 1
    14    7    8 1
    15    7   11 1
    16    7   26 1
    17    8   12 1
    18    8   27 1
    19    8   28 1
    20    9   10 1
    21    9   29 1
    22    9   30 1
    23   10   13 1
    24   10   32 1
    25   11   33 1
    26   11   34 1
    27   11   35 1
    28   12   15 ar
    29   12   16 ar
    30   13   14 ar
    31   13   17 ar
    32   14   18 ar
    33   14   36 1
    34   15   20 ar
    35   15   37 1
    36   16   21 ar
    37   16   38 1
    38   17   19 ar
    39   17   39 1
    40   18   22 ar
    41   19   22 ar
    42   19   41 1
    43   20   23 ar
    44   20   42 1
    45   21   23 ar
    46   21   43 1
    47   24   46 1
    48   25   47 1
    49   25   48 1
    50   25   49 1
