@<TRIPOS>MOLECULE
DB00705
   60    63     0     0     0
SMALL
USER_CHARGES

@<TRIPOS>ATOM
      1 S1         -7.5927   -1.9283   -0.9746 S.o2      1 <0>         0.0403
      2 O1         -1.0834    3.5702    2.3058 O.2       1 <0>        -0.2684
      3 O2         -8.9585   -2.1111   -1.4297 O.2       1 <0>        -0.1555
      4 O3         -6.5289   -2.7748   -1.4774 O.2       1 <0>        -0.1555
      5 N1          2.6591    1.2911   -0.0708 N.pl3     1 <0>        -0.3107
      6 N2          0.3574    2.0057    1.3953 N.am      1 <0>        -0.2933
      7 N3         -1.9320    1.3094   -0.2865 N.pl3     1 <0>        -0.3506
      8 N4          3.9709   -1.1927    0.2189 N.pl3     1 <0>        -0.3389
      9 N5          4.2123    1.9118   -1.7851 N.ar      1 <0>        -0.2384
     10 N6         -7.1841   -0.2636   -1.1370 N.pl3     1 <0>        -0.2209
     11 C1          2.4240    2.7048    0.2670 C.3       1 <0>         0.0294
     12 C2          1.4662    0.4348   -0.1393 C.3       1 <0>         0.0294
     13 C3          1.5635    2.8197    1.5243 C.3       1 <0>         0.0308
     14 C4          0.6300    0.5902    1.1293 C.3       1 <0>         0.0308
     15 C5          3.7706    0.9899   -0.8666 C.ar      1 <0>         0.1424
     16 C6         -0.9094    2.5808    1.5922 C.2       1 <0>         0.2630
     17 C7         -2.0389    1.9602    0.9097 C.cat     1 <0>         0.1030
     18 C8          4.4244   -0.2490   -0.7217 C.ar      1 <0>         0.0678
     19 C9         -3.3505    1.9126    1.3107 C.2       1 <0>        -0.0241
     20 C10        -4.0774    1.2014    0.3154 C.ar      1 <0>         0.0022
     21 C11        -3.1643    0.8341   -0.6753 C.ar      1 <0>         0.0471
     22 C12         4.5962   -2.4666    0.4087 C.3       1 <0>         0.0151
     23 C13         5.5273   -0.5402   -1.5168 C.ar      1 <0>        -0.0361
     24 C14        -5.4288    0.8336    0.1619 C.ar      1 <0>        -0.0302
     25 C15        -3.5365    0.1146   -1.8162 C.ar      1 <0>        -0.0360
     26 C16         5.2876    1.5934   -2.5402 C.ar      1 <0>         0.0298
     27 C17        -5.8159    0.1140   -0.9746 C.ar      1 <0>         0.0484
     28 C18         5.9734    0.3932   -2.4458 C.ar      1 <0>        -0.0417
     29 C19        -4.8824   -0.2389   -1.9471 C.ar      1 <0>        -0.0374
     30 C20         5.8527   -2.2958    1.2527 C.3       1 <0>        -0.0470
     31 C21         3.6079   -3.4171    1.0714 C.3       1 <0>        -0.0470
     32 C22        -7.6155   -2.0750    0.7981 C.3       1 <0>         0.0736
     33 H1          1.9233    3.1977   -0.5759 H         1 <0>         0.0480
     34 H2          3.3721    3.2258    0.4484 H         1 <0>         0.0480
     35 H3          1.6826   -0.6255   -0.2915 H         1 <0>         0.0480
     36 H4          0.8888    0.7450   -1.0173 H         1 <0>         0.0480
     37 H5          2.1116    2.4573    2.4022 H         1 <0>         0.0480
     38 H6          1.3028    3.8682    1.7012 H         1 <0>         0.0480
     39 H7         -0.2846   -0.0049    1.0845 H         1 <0>         0.0480
     40 H8          1.1953    0.2135    1.9915 H         1 <0>         0.0480
     41 H9         -3.7525    2.3397    2.2198 H         1 <0>         0.0646
     42 H10        -1.0940    1.2286   -0.8414 H         1 <0>         0.1660
     43 H11         3.3702   -0.8429    0.9574 H         1 <0>         0.1464
     44 H12         4.8536   -2.9334   -0.5494 H         1 <0>         0.0492
     45 H13         6.0744   -1.4747   -1.4646 H         1 <0>         0.0638
     46 H14        -6.1580    1.1066    0.9203 H         1 <0>         0.0643
     47 H15        -2.8108   -0.1580   -2.5750 H         1 <0>         0.0639
     48 H16         5.5951    2.3546   -3.2494 H         1 <0>         0.0830
     49 H17         6.8300    0.1880   -3.0777 H         1 <0>         0.0633
     50 H18        -5.1909   -0.7865   -2.8351 H         1 <0>         0.0637
     51 H19         5.6131   -1.8676    2.2332 H         1 <0>         0.0247
     52 H20         6.3351   -3.2646    1.4227 H         1 <0>         0.0247
     53 H21         6.5933   -1.6390    0.7878 H         1 <0>         0.0247
     54 H22         4.0523   -4.4081    1.2127 H         1 <0>         0.0247
     55 H23         3.2900   -3.0453    2.0521 H         1 <0>         0.0247
     56 H24         2.7080   -3.5342    0.4570 H         1 <0>         0.0247
     57 H25        -7.8514    0.3935   -0.7109 H         1 <0>         0.1733
     58 H26        -7.9350   -3.0898    1.0463 H         1 <0>         0.0482
     59 H27        -6.6114   -1.9018    1.1881 H         1 <0>         0.0482
     60 H28        -8.3272   -1.3548    1.2059 H         1 <0>         0.0482
@<TRIPOS>BOND
     1    1    3 2
     2    1    4 2
     3    1   10 1
     4    1   32 1
     5    2   16 2
     6    5   11 1
     7    5   12 1
     8    5   15 1
     9    6   13 1
    10    6   14 1
    11    6   16 am
    12    7   17 1
    13    7   21 2
    14    7   42 1
    15    8   18 1
    16    8   22 1
    17    8   43 1
    18    9   15 ar
    19    9   26 ar
    20   10   27 1
    21   10   57 1
    22   11   13 1
    23   11   33 1
    24   11   34 1
    25   12   14 1
    26   12   35 1
    27   12   36 1
    28   13   37 1
    29   13   38 1
    30   14   39 1
    31   14   40 1
    32   15   18 ar
    33   16   17 1
    34   17   19 1
    35   18   23 ar
    36   19   20 2
    37   19   41 1
    38   20   21 ar
    39   20   24 ar
    40   21   25 ar
    41   22   30 1
    42   22   31 1
    43   22   44 1
    44   23   28 ar
    45   23   45 1
    46   24   27 ar
    47   24   46 1
    48   25   29 ar
    49   25   47 1
    50   26   28 ar
    51   26   48 1
    52   27   29 ar
    53   28   49 1
    54   29   50 1
    55   30   51 1
    56   30   52 1
    57   30   53 1
    58   31   54 1
    59   31   55 1
    60   31   56 1
    61   32   58 1
    62   32   59 1
    63   32   60 1
