@<TRIPOS>MOLECULE
DB00545
   26    26     0     0     0
SMALL
USER_CHARGES

@<TRIPOS>ATOM
      1 O1          0.6997    0.2799    0.6925 O.3       1 <0>        -0.4054
      2 O2          1.0747    0.0689   -1.5822 O.2       1 <0>        -0.2258
      3 N1         -2.8225   -0.4338    0.0463 N.ar      1 <0>        -0.2034
      4 N2          2.8511   -0.1208   -0.0929 N.am      1 <0>        -0.2732
      5 C1         -0.6527    0.4796    0.3965 C.ar      1 <0>         0.1964
      6 C2         -1.4833   -0.6104    0.3361 C.ar      1 <0>         0.2137
      7 C3         -3.2965    0.8445   -0.1769 C.ar      1 <0>         0.1712
      8 C4         -1.1023    1.7565    0.1782 C.ar      1 <0>        -0.0077
      9 C5         -2.4487    1.9455   -0.1141 C.ar      1 <0>         0.0056
     10 C6         -3.7204   -1.5762   -0.0214 C.3       1 <0>         0.1405
     11 C7          1.5072    0.0748   -0.4302 C.2       1 <0>         0.4079
     12 C8          3.8412   -0.3503   -1.1352 C.3       1 <0>         0.0060
     13 C9          3.3543   -0.1082    1.2769 C.3       1 <0>         0.0060
     14 H1         -1.1593   -1.6287    0.5080 H         1 <0>         0.1416
     15 H2         -4.3535    0.9322   -0.3957 H         1 <0>         0.1376
     16 H3         -0.4324    2.6087    0.2310 H         1 <0>         0.0658
     17 H4         -2.8363    2.9438   -0.2906 H         1 <0>         0.0678
     18 H5         -4.1380   -1.7280    0.9769 H         1 <0>         0.0993
     19 H6         -4.5132   -1.3697   -0.7447 H         1 <0>         0.0993
     20 H7         -3.1605   -2.4577   -0.3439 H         1 <0>         0.0993
     21 H8          4.5955    0.4402   -1.0846 H         1 <0>         0.0429
     22 H9          3.3890   -0.3469   -2.1302 H         1 <0>         0.0429
     23 H10         4.3152   -1.3210   -0.9633 H         1 <0>         0.0429
     24 H11         4.1024    0.6851    1.3660 H         1 <0>         0.0429
     25 H12         3.8225   -1.0748    1.4852 H         1 <0>         0.0429
     26 H13         2.5667    0.0668    2.0120 H         1 <0>         0.0429
@<TRIPOS>BOND
     1    1    5 1
     2    1   11 1
     3    2   11 2
     4    3    6 ar
     5    3    7 ar
     6    3   10 1
     7    4   11 am
     8    4   12 1
     9    4   13 1
    10    5    6 ar
    11    5    8 ar
    12    6   14 1
    13    7    9 ar
    14    7   15 1
    15    8    9 ar
    16    8   16 1
    17    9   17 1
    18   10   18 1
    19   10   19 1
    20   10   20 1
    21   12   21 1
    22   12   22 1
    23   12   23 1
    24   13   24 1
    25   13   25 1
    26   13   26 1
