@<TRIPOS>MOLECULE
DB00404
   35    38     0     0     0
SMALL
USER_CHARGES

@<TRIPOS>ATOM
      1 Cl1        -0.2497   -4.2017   -1.9110 Cl        1 <0>        -0.0835
      2 N1          2.1004    0.8823    0.0431 N.pl3     1 <0>        -0.2811
      3 N2         -0.6215    1.9920   -0.7802 N.2       1 <0>        -0.2749
      4 N3          2.5447    3.0340    0.2102 N.2       1 <0>        -0.1321
      5 N4          3.4861    2.3441    0.9345 N.2       1 <0>        -0.1342
      6 C1          1.4846   -0.3267   -0.3493 C.ar      1 <0>         0.0587
      7 C2          0.1313   -0.3793   -0.7373 C.ar      1 <0>         0.0258
      8 C3          1.7372    2.1532   -0.3418 C.cat     1 <0>         0.1595
      9 C4         -0.8414    0.7458   -0.5296 C.2       1 <0>         0.0752
     10 C5          0.6575    2.4138   -1.3181 C.3       1 <0>         0.1004
     11 C6          3.2262    1.0633    0.8041 C.cat     1 <0>         0.1349
     12 C7          2.2640   -1.4944   -0.3839 C.ar      1 <0>        -0.0357
     13 C8         -0.3867   -1.5866   -1.2383 C.ar      1 <0>        -0.0322
     14 C9         -2.1804    0.4207    0.0461 C.ar      1 <0>         0.0006
     15 C10         1.7242   -2.6893   -0.8604 C.ar      1 <0>        -0.0414
     16 C11         0.4067   -2.7318   -1.3022 C.ar      1 <0>         0.0417
     17 C12         3.9625    0.0177    1.5449 C.3       1 <0>        -0.0041
     18 C13        -2.3078   -0.6523    0.9176 C.ar      1 <0>        -0.0526
     19 C14        -3.2792    1.1963   -0.2976 C.ar      1 <0>        -0.0526
     20 C15        -3.5584   -0.9558    1.4556 C.ar      1 <0>        -0.0611
     21 C16        -4.5298    0.8928    0.2406 C.ar      1 <0>        -0.0611
     22 C17        -4.6693   -0.1833    1.1172 C.ar      1 <0>        -0.0617
     23 H1          0.6077    3.4895   -1.5215 H         1 <0>         0.0590
     24 H2          0.8643    1.9313   -2.2810 H         1 <0>         0.0590
     25 H3          3.3230   -1.5205   -0.1711 H         1 <0>         0.0639
     26 H4         -1.4171   -1.6431   -1.5854 H         1 <0>         0.0639
     27 H5          2.3560   -3.5727   -0.9116 H         1 <0>         0.0633
     28 H6          4.7362   -0.4425    0.9239 H         1 <0>         0.0308
     29 H7          4.4852    0.4759    2.3934 H         1 <0>         0.0308
     30 H8          3.3050   -0.7428    1.9752 H         1 <0>         0.0308
     31 H9         -1.4603   -1.2498    1.2397 H         1 <0>         0.0624
     32 H10        -3.1975    2.0331   -0.9855 H         1 <0>         0.0624
     33 H11        -3.6658   -1.7876    2.1459 H         1 <0>         0.0618
     34 H12        -5.3953    1.4930   -0.0241 H         1 <0>         0.0618
     35 H13        -5.6426   -0.4186    1.5376 H         1 <0>         0.0618
@<TRIPOS>BOND
     1    1   16 1
     2    2    6 1
     3    2    8 1
     4    2   11 2
     5    3    9 2
     6    3   10 1
     7    4    5 2
     8    4    8 1
     9    5   11 1
    10    6    7 ar
    11    6   12 ar
    12    7    9 1
    13    7   13 ar
    14    8   10 1
    15    9   14 1
    16   10   23 1
    17   10   24 1
    18   11   17 1
    19   12   15 ar
    20   12   25 1
    21   13   16 ar
    22   13   26 1
    23   14   18 ar
    24   14   19 ar
    25   15   16 ar
    26   15   27 1
    27   17   28 1
    28   17   29 1
    29   17   30 1
    30   18   20 ar
    31   18   31 1
    32   19   21 ar
    33   19   32 1
    34   20   22 ar
    35   20   33 1
    36   21   22 ar
    37   21   34 1
    38   22   35 1
