@<TRIPOS>MOLECULE
DB00780
   22    22     0     0     0
SMALL
USER_CHARGES

@<TRIPOS>ATOM
      1 N1          3.0027   -0.2382    0.2676 N.3       1 <0>        -0.2589
      2 N2          3.8729   -0.2154   -0.8630 N.3       1 <0>        -0.2705
      3 C1          0.6220   -0.1286    0.9482 C.3       1 <0>        -0.0138
      4 C2         -0.7869   -0.0528    0.4646 C.ar      1 <0>        -0.0461
      5 C3          1.6286   -0.1370   -0.2124 C.3       1 <0>         0.0144
      6 C4         -1.3932    1.1890    0.2748 C.ar      1 <0>        -0.0585
      7 C5         -1.4982   -1.2237    0.2018 C.ar      1 <0>        -0.0585
      8 C6         -2.7106    1.2602   -0.1776 C.ar      1 <0>        -0.0615
      9 C7         -2.8158   -1.1524   -0.2508 C.ar      1 <0>        -0.0615
     10 C8         -3.4219    0.0896   -0.4405 C.ar      1 <0>        -0.0617
     11 H1          0.8290    0.7166    1.6181 H         1 <0>         0.0326
     12 H2          0.7527   -1.0295    1.5627 H         1 <0>         0.0326
     13 H3          1.4985    0.7790   -0.8051 H         1 <0>         0.0441
     14 H4          1.4044   -0.9846   -0.8740 H         1 <0>         0.0441
     15 H5         -0.8491    2.1085    0.4741 H         1 <0>         0.0620
     16 H6         -1.0368   -2.1974    0.3436 H         1 <0>         0.0620
     17 H7          3.2165    0.5524    0.8743 H         1 <0>         0.1403
     18 H8         -3.1826    2.2272   -0.3259 H         1 <0>         0.0618
     19 H9         -3.3695   -2.0638   -0.4562 H         1 <0>         0.0618
     20 H10        -4.4475    0.1451   -0.7932 H         1 <0>         0.0618
     21 H11         3.8546    0.7115   -1.2878 H         1 <0>         0.1368
     22 H12         4.8303   -0.3559   -0.5432 H         1 <0>         0.1368
@<TRIPOS>BOND
     1    1    2 1
     2    1    5 1
     3    1   17 1
     4    2   21 1
     5    2   22 1
     6    3    4 1
     7    3    5 1
     8    3   11 1
     9    3   12 1
    10    4    6 ar
    11    4    7 ar
    12    5   13 1
    13    5   14 1
    14    6    8 ar
    15    6   15 1
    16    7    9 ar
    17    7   16 1
    18    8   10 ar
    19    8   18 1
    20    9   10 ar
    21    9   19 1
    22   10   20 1
