@<TRIPOS>MOLECULE
DB00689
   47    49     0     0     0
SMALL
USER_CHARGES

@<TRIPOS>ATOM
      1 S1         -0.0647   -0.6067   -0.5525 S.3       1 <0>        -0.1310
      2 O1         -0.2752    3.9126    0.5172 O.2       1 <0>        -0.2731
      3 O2         -4.7379   -0.9611   -0.2411 O.3       1 <0>        -0.4603
      4 O3         -3.9184    2.9608    0.4575 O.3       1 <0>        -0.4763
      5 O4          3.3297    1.4543   -2.1092 O.2       1 <0>        -0.2737
      6 O5         -2.8084    2.5462    2.4134 O.2       1 <0>        -0.2437
      7 O6         -6.4354   -1.5431    1.2139 O.2       1 <0>        -0.2512
      8 N1         -1.0983    1.8050   -0.1465 N.am      1 <0>        -0.2489
      9 N2          1.9665    1.6723   -0.2466 N.am      1 <0>        -0.3002
     10 N3          5.5472    1.4331   -0.4619 N.3       1 <0>        -0.3163
     11 C1         -0.3743    1.0655   -1.1643 C.3       1 <0>         0.1042
     12 C2          0.7628    2.0912   -0.9641 C.3       1 <0>         0.1284
     13 C3         -0.2562    2.8585   -0.0740 C.2       1 <0>         0.2440
     14 C4         -2.2536    1.3733    0.4216 C.2       1 <0>         0.1252
     15 C5         -2.6662    0.0894    0.2976 C.2       1 <0>         0.0056
     16 C6         -1.8401   -0.9957   -0.3896 C.3       1 <0>         0.0220
     17 C7         -3.9742   -0.4458    0.8290 C.3       1 <0>         0.1166
     18 C8          3.1704    1.3839   -0.8917 C.2       1 <0>         0.2350
     19 C9         -3.0026    2.3458    1.2314 C.2       1 <0>         0.3515
     20 C10         4.2703    0.9483    0.0702 C.3       1 <0>         0.1079
     21 C11         4.2576   -0.5543    0.2603 C.ar      1 <0>        -0.0219
     22 C12         3.4887   -1.0993    1.2732 C.ar      1 <0>        -0.0566
     23 C13         5.0148   -1.3473   -0.5835 C.ar      1 <0>        -0.0566
     24 C14        -5.9617   -1.4866    0.0872 C.2       1 <0>         0.3043
     25 C15         3.4767   -2.4830    1.4484 C.ar      1 <0>        -0.0614
     26 C16         5.0025   -2.7311   -0.4083 C.ar      1 <0>        -0.0614
     27 C17         4.2335   -3.2989    0.6075 C.ar      1 <0>        -0.0617
     28 C18        -6.6558   -1.9920   -1.1413 C.3       1 <0>         0.0332
     29 H1         -0.8505    1.1177   -2.1506 H         1 <0>         0.0644
     30 H2          1.0033    2.6536   -1.8750 H         1 <0>         0.0622
     31 H3          1.9344    1.5709    0.7650 H         1 <0>         0.1496
     32 H4         -2.2489   -1.1927   -1.3867 H         1 <0>         0.0424
     33 H5         -1.8965   -1.9261    0.1853 H         1 <0>         0.0424
     34 H6         -4.5551    0.3280    1.3418 H         1 <0>         0.0746
     35 H7         -3.7679   -1.2418    1.5554 H         1 <0>         0.0746
     36 H8          4.1220    1.4399    1.0401 H         1 <0>         0.0605
     37 H9          5.5212    2.4500   -0.5342 H         1 <0>         0.1192
     38 H10         6.2936    1.2214    0.2001 H         1 <0>         0.1192
     39 H11        -4.4437    3.6199    0.9597 H         1 <0>         0.2954
     40 H12         2.8960   -0.4729    1.9334 H         1 <0>         0.0621
     41 H13         5.6086   -0.9377   -1.3946 H         1 <0>         0.0621
     42 H14         2.8773   -2.9251    2.2387 H         1 <0>         0.0618
     43 H15         5.5882   -3.3673   -1.0656 H         1 <0>         0.0618
     44 H16         4.2230   -4.3765    0.7428 H         1 <0>         0.0618
     45 H17        -7.6271   -2.4110   -0.8633 H         1 <0>         0.0342
     46 H18        -6.8185   -1.1672   -1.8397 H         1 <0>         0.0342
     47 H19        -6.0571   -2.7786   -1.6070 H         1 <0>         0.0342
@<TRIPOS>BOND
     1    1   11 1
     2    1   16 1
     3    2   13 2
     4    3   17 1
     5    3   24 1
     6    4   19 1
     7    4   39 1
     8    5   18 2
     9    6   19 2
    10    7   24 2
    11    8   11 1
    12    8   13 am
    13    8   14 1
    14    9   12 1
    15    9   18 am
    16    9   31 1
    17   10   20 1
    18   10   37 1
    19   10   38 1
    20   11   12 1
    21   11   29 1
    22   12   13 1
    23   12   30 1
    24   14   15 2
    25   14   19 1
    26   15   16 1
    27   15   17 1
    28   16   32 1
    29   16   33 1
    30   17   34 1
    31   17   35 1
    32   18   20 1
    33   20   21 1
    34   20   36 1
    35   21   22 ar
    36   21   23 ar
    37   22   25 ar
    38   22   40 1
    39   23   26 ar
    40   23   41 1
    41   24   28 1
    42   25   27 ar
    43   25   42 1
    44   26   27 ar
    45   26   43 1
    46   27   44 1
    47   28   45 1
    48   28   46 1
    49   28   47 1
