@<TRIPOS>MOLECULE
DB00948
   61    64     0     0     0
SMALL
USER_CHARGES

@<TRIPOS>ATOM
      1 S1          3.2555    0.1021   -1.0707 S.3       1 <0>        -0.1273
      2 S2         -7.1552   -1.3919   -1.5958 S.o2      1 <0>         0.0459
      3 O1          3.8800   -2.6986    2.2728 O.2       1 <0>        -0.2734
      4 O2          7.6172   -0.8759    0.9791 O.3       1 <0>        -0.4793
      5 O3          7.0020   -2.4799   -0.5192 O.2       1 <0>        -0.2489
      6 O4         -0.0715   -1.3762   -1.0070 O.2       1 <0>        -0.2734
      7 O5         -2.9078    0.2078    2.6787 O.2       1 <0>        -0.2521
      8 O6         -4.0404   -1.1003   -1.2643 O.2       1 <0>        -0.2503
      9 O7         -6.3610   -1.9265   -2.6901 O.2       1 <0>        -0.1552
     10 O8         -8.3773   -2.0563   -1.1727 O.2       1 <0>        -0.1552
     11 N1          4.3958   -1.9061    0.1102 N.am      1 <0>        -0.2708
     12 N2          1.3423   -1.3842    0.8325 N.am      1 <0>        -0.2999
     13 N3         -2.0615   -0.3093    0.5932 N.am      1 <0>        -0.2836
     14 N4         -4.3683   -0.4897    1.0059 N.am      1 <0>        -0.2069
     15 N5         -6.1639   -1.1205   -0.2553 N.am      1 <0>        -0.1583
     16 C1          3.2806   -1.7105   -0.8210 C.3       1 <0>         0.1005
     17 C2          5.1009    0.1986   -0.8379 C.3       1 <0>         0.0417
     18 C3          5.3869   -0.8586    0.2502 C.3       1 <0>         0.1379
     19 C4          2.3569   -2.2712    0.2691 C.3       1 <0>         0.1277
     20 C5          3.6324   -2.4076    1.1245 C.2       1 <0>         0.2402
     21 C6          5.4692    1.6044   -0.3601 C.3       1 <0>        -0.0484
     22 C7          5.7633   -0.0866   -2.1926 C.3       1 <0>        -0.0484
     23 C8          6.7311   -1.5093    0.1721 C.2       1 <0>         0.3269
     24 C9          0.1933   -1.0045    0.1348 C.2       1 <0>         0.2386
     25 C10        -0.6816   -0.0351    0.9191 C.3       1 <0>         0.1261
     26 C11        -0.3122    1.4037    0.6436 C.ar      1 <0>        -0.0184
     27 C12        -3.0901   -0.1639    1.5168 C.2       1 <0>         0.3106
     28 C13        -5.5337   -0.4777    1.8890 C.3       1 <0>         0.0430
     29 C14        -6.7638   -0.6061    0.9939 C.3       1 <0>         0.0552
     30 C15        -4.7473   -0.9258   -0.2827 C.2       1 <0>         0.3313
     31 C16         0.6478    2.0402    1.4304 C.ar      1 <0>        -0.0563
     32 C17        -0.9307    2.0955   -0.3978 C.ar      1 <0>        -0.0563
     33 C18         0.9891    3.3685    1.1759 C.ar      1 <0>        -0.0614
     34 C19        -0.5894    3.4238   -0.6523 C.ar      1 <0>        -0.0614
     35 C20        -7.5758    0.2850   -2.0110 C.3       1 <0>         0.0739
     36 C21         0.3705    4.0602    0.1347 C.ar      1 <0>        -0.0617
     37 H1          3.3738   -2.3147   -1.7280 H         1 <0>         0.0640
     38 H2          5.2583   -0.4386    1.2574 H         1 <0>         0.0631
     39 H3          1.9299   -3.2508    0.0203 H         1 <0>         0.0622
     40 H4          4.9662    1.8611    0.5795 H         1 <0>         0.0244
     41 H5          5.2026    2.3663   -1.1019 H         1 <0>         0.0244
     42 H6          6.5481    1.6827   -0.1843 H         1 <0>         0.0244
     43 H7          5.5372   -1.0923   -2.5641 H         1 <0>         0.0244
     44 H8          6.8537   -0.0004   -2.1214 H         1 <0>         0.0244
     45 H9          5.4392    0.6315   -2.9556 H         1 <0>         0.0244
     46 H10         1.4712   -1.0115    1.7702 H         1 <0>         0.1496
     47 H11        -0.5584   -0.2345    1.9915 H         1 <0>         0.0646
     48 H12         8.5063   -1.2883    0.9419 H         1 <0>         0.2951
     49 H13        -2.2851   -0.6013   -0.3528 H         1 <0>         0.1513
     50 H14        -5.4429   -1.3374    2.5633 H         1 <0>         0.0486
     51 H15        -5.5499    0.4311    2.4991 H         1 <0>         0.0486
     52 H16        -7.5004   -1.2929    1.4172 H         1 <0>         0.0499
     53 H17        -7.2114    0.3780    0.8311 H         1 <0>         0.0499
     54 H18         1.1384    1.5125    2.2439 H         1 <0>         0.0621
     55 H19        -1.6706    1.6238   -1.0383 H         1 <0>         0.0621
     56 H20         1.7375    3.8637    1.7877 H         1 <0>         0.0618
     57 H21        -1.0679    3.9617   -1.4654 H         1 <0>         0.0618
     58 H22        -6.6585    0.8554   -2.1692 H         1 <0>         0.0482
     59 H23        -8.1826    0.7211   -1.2167 H         1 <0>         0.0482
     60 H24        -8.1552    0.2623   -2.9371 H         1 <0>         0.0482
     61 H25         0.6374    5.0940   -0.0644 H         1 <0>         0.0618
@<TRIPOS>BOND
     1    1   16 1
     2    1   17 1
     3    2    9 2
     4    2   10 2
     5    2   15 1
     6    2   35 1
     7    3   20 2
     8    4   23 1
     9    4   48 1
    10    5   23 2
    11    6   24 2
    12    7   27 2
    13    8   30 2
    14   11   16 1
    15   11   18 1
    16   11   20 am
    17   12   19 1
    18   12   24 am
    19   12   46 1
    20   13   25 1
    21   13   27 am
    22   13   49 1
    23   14   27 am
    24   14   28 1
    25   14   30 am
    26   15   29 1
    27   15   30 am
    28   16   19 1
    29   16   37 1
    30   17   18 1
    31   17   21 1
    32   17   22 1
    33   18   23 1
    34   18   38 1
    35   19   20 1
    36   19   39 1
    37   21   40 1
    38   21   41 1
    39   21   42 1
    40   22   43 1
    41   22   44 1
    42   22   45 1
    43   24   25 1
    44   25   26 1
    45   25   47 1
    46   26   31 ar
    47   26   32 ar
    48   28   29 1
    49   28   50 1
    50   28   51 1
    51   29   52 1
    52   29   53 1
    53   31   33 ar
    54   31   54 1
    55   32   34 ar
    56   32   55 1
    57   33   36 ar
    58   33   56 1
    59   34   36 ar
    60   34   57 1
    61   35   58 1
    62   35   59 1
    63   35   60 1
    64   36   61 1
