@<TRIPOS>MOLECULE
DB00189
   18    17     0     0     0
SMALL
USER_CHARGES

@<TRIPOS>ATOM
      1 Cl1        -1.0097    3.7373    0.6030 Cl        1 <0>        -0.0921
      2 O1          0.2958    0.0350   -1.6451 O.3       1 <0>        -0.3730
      3 C1          0.4955   -0.0184   -0.2314 C.3       1 <0>         0.1456
      4 C2         -0.2669   -1.2381    0.3319 C.3       1 <0>        -0.0117
      5 C3         -1.7830   -1.1519    0.1787 C.3       1 <0>        -0.0614
      6 C4          0.0318    1.2683    0.4190 C.2       1 <0>        -0.0297
      7 C5          1.9422   -0.1673    0.0324 C.1       1 <0>        -0.0667
      8 C6         -0.5196    2.3110   -0.2116 C.2       1 <0>         0.0043
      9 C7          3.1173   -0.2940    0.2453 C.1       1 <0>        -0.1160
     10 H1          0.0686   -2.1482   -0.1837 H         1 <0>         0.0303
     11 H2         -0.0327   -1.3774    1.3958 H         1 <0>         0.0303
     12 H3         -2.2025   -0.3294    0.7654 H         1 <0>         0.0231
     13 H4         -2.2458   -2.0786    0.5333 H         1 <0>         0.0231
     14 H5         -2.0696   -1.0141   -0.8685 H         1 <0>         0.0231
     15 H6          0.1617    1.3283    1.4997 H         1 <0>         0.0619
     16 H7          0.5608   -0.8214   -2.0226 H         1 <0>         0.2117
     17 H8         -0.7032    2.3656   -1.2756 H         1 <0>         0.0744
     18 H9          4.1593   -0.4065    0.4341 H         1 <0>         0.1229
@<TRIPOS>BOND
     1    1    8 1
     2    2    3 1
     3    2   16 1
     4    3    4 1
     5    3    6 1
     6    3    7 1
     7    4    5 1
     8    4   10 1
     9    4   11 1
    10    5   12 1
    11    5   13 1
    12    5   14 1
    13    6    8 2
    14    6   15 1
    15    7    9 3
    16    8   17 1
    17    9   18 1
