@<TRIPOS>MOLECULE
DB00488
   33    33     0     0     0
SMALL
USER_CHARGES

@<TRIPOS>ATOM
      1 N1          2.7027    0.0044   -0.0056 N.pl3     1 <0>        -0.3056
      2 N2         -1.3622    2.3426    0.0042 N.pl3     1 <0>        -0.3056
      3 N3         -1.3547   -2.3467   -0.0055 N.pl3     1 <0>        -0.3056
      4 N4          0.6859    1.2009   -0.0017 N.ar      1 <0>        -0.1807
      5 N5          0.6897   -1.1986   -0.0065 N.ar      1 <0>        -0.1807
      6 N6         -1.3902   -0.0022   -0.0019 N.ar      1 <0>        -0.1807
      7 C1          1.3079    0.0021   -0.0047 C.ar      1 <0>         0.2232
      8 C2         -0.6545    1.1211   -0.0003 C.ar      1 <0>         0.2232
      9 C3         -0.6510   -1.1230   -0.0047 C.ar      1 <0>         0.2232
     10 C4          3.4502    1.2553   -0.0035 C.3       1 <0>         0.0031
     11 C5          3.4543   -1.2443    0.0052 C.3       1 <0>         0.0031
     12 C6         -0.6483    3.6031    0.0071 C.3       1 <0>         0.0031
     13 C7         -2.8110    2.3497   -0.0080 C.3       1 <0>         0.0031
     14 C8         -0.6366   -3.6050   -0.0080 C.3       1 <0>         0.0031
     15 C9         -2.8033   -2.3588    0.0104 C.3       1 <0>         0.0031
     16 H1          4.5326    1.0896   -0.0164 H         1 <0>         0.0428
     17 H2          3.2198    1.8388    0.8946 H         1 <0>         0.0428
     18 H3          3.2022    1.8532   -0.8873 H         1 <0>         0.0428
     19 H4          3.2203   -1.8257    0.9039 H         1 <0>         0.0428
     20 H5          4.5362   -1.0751   -0.0015 H         1 <0>         0.0428
     21 H6          3.2133   -1.8459   -0.8782 H         1 <0>         0.0428
     22 H7         -1.3287    4.4611    0.0209 H         1 <0>         0.0428
     23 H8         -0.0254    3.6978   -0.8891 H         1 <0>         0.0428
     24 H9         -0.0079    3.6847    0.8923 H         1 <0>         0.0428
     25 H10        -3.2094    1.8353    0.8736 H         1 <0>         0.0428
     26 H11        -3.1937    1.8558   -0.9080 H         1 <0>         0.0428
     27 H12        -3.2173    3.3667    0.0006 H         1 <0>         0.0428
     28 H13        -0.0110   -3.6962    0.8870 H         1 <0>         0.0428
     29 H14         0.0018   -3.6861   -0.8947 H         1 <0>         0.0428
     30 H15        -1.3142   -4.4653   -0.0184 H         1 <0>         0.0428
     31 H16        -3.1856   -1.8652    0.9108 H         1 <0>         0.0428
     32 H17        -3.2064   -3.3773    0.0040 H         1 <0>         0.0428
     33 H18        -3.2056   -1.8469   -0.8708 H         1 <0>         0.0428
@<TRIPOS>BOND
     1    1    7 1
     2    1   10 1
     3    1   11 1
     4    2    8 1
     5    2   12 1
     6    2   13 1
     7    3    9 1
     8    3   14 1
     9    3   15 1
    10    4    7 ar
    11    4    8 ar
    12    5    7 ar
    13    5    9 ar
    14    6    8 ar
    15    6    9 ar
    16   10   16 1
    17   10   17 1
    18   10   18 1
    19   11   19 1
    20   11   20 1
    21   11   21 1
    22   12   22 1
    23   12   23 1
    24   12   24 1
    25   13   25 1
    26   13   26 1
    27   13   27 1
    28   14   28 1
    29   14   29 1
    30   14   30 1
    31   15   31 1
    32   15   32 1
    33   15   33 1
