@<TRIPOS>MOLECULE
DB00379
   30    30     0     0     0
SMALL
USER_CHARGES

@<TRIPOS>ATOM
      1 O1          0.2981   -0.2321   -0.5895 O.3       1 <0>        -0.4899
      2 N1          3.4979   -0.8637    1.1300 N.3       1 <0>        -0.3247
      3 C1          2.6093   -0.6068   -0.0022 C.3       1 <0>         0.0365
      4 C2          1.1780   -0.4382    0.5089 C.3       1 <0>         0.1044
      5 C3         -1.0224   -0.0216   -0.2913 C.ar      1 <0>         0.1263
      6 C4         -1.8921   -1.1045   -0.2010 C.ar      1 <0>        -0.0085
      7 C5         -1.4855    1.2741   -0.0814 C.ar      1 <0>        -0.0085
      8 C6          3.0855    0.6238   -0.7745 C.3       1 <0>        -0.0467
      9 C7         -3.2367   -0.8897    0.1018 C.ar      1 <0>        -0.0554
     10 C8         -2.8300    1.4887    0.2218 C.ar      1 <0>        -0.0554
     11 C9         -3.7057    0.4069    0.3133 C.ar      1 <0>        -0.0610
     12 C10        -1.4095   -2.5001   -0.4232 C.3       1 <0>        -0.0362
     13 C11        -0.5640    2.4454   -0.1754 C.3       1 <0>        -0.0362
     14 H1          2.6441   -1.4666   -0.6816 H         1 <0>         0.0489
     15 H2          0.8727   -1.3378    1.0576 H         1 <0>         0.0712
     16 H3          1.1173    0.4126    1.1992 H         1 <0>         0.0712
     17 H4          4.1180    0.4953   -1.1182 H         1 <0>         0.0246
     18 H5          3.0455    1.5266   -0.1546 H         1 <0>         0.0246
     19 H6          2.4655    0.7964   -1.6605 H         1 <0>         0.0246
     20 H7         -3.9304   -1.7227    0.1789 H         1 <0>         0.0621
     21 H8         -3.2097    2.4928    0.3912 H         1 <0>         0.0621
     22 H9          3.4924   -0.0639    1.7624 H         1 <0>         0.1186
     23 H10         4.4578   -0.9533    0.7991 H         1 <0>         0.1186
     24 H11        -4.7524    0.5739    0.5504 H         1 <0>         0.0618
     25 H12        -0.6947   -2.5464   -1.2514 H         1 <0>         0.0279
     26 H13        -0.9339   -2.8859    0.4837 H         1 <0>         0.0279
     27 H14        -2.2359   -3.1703   -0.6850 H         1 <0>         0.0279
     28 H15         0.0224    2.5426    0.7434 H         1 <0>         0.0279
     29 H16         0.1165    2.3457   -1.0276 H         1 <0>         0.0279
     30 H17        -1.1181    3.3788   -0.3240 H         1 <0>         0.0279
@<TRIPOS>BOND
     1    1    4 1
     2    1    5 1
     3    2    3 1
     4    2   22 1
     5    2   23 1
     6    3    4 1
     7    3    8 1
     8    3   14 1
     9    4   15 1
    10    4   16 1
    11    5    6 ar
    12    5    7 ar
    13    6    9 ar
    14    6   12 1
    15    7   10 ar
    16    7   13 1
    17    8   17 1
    18    8   18 1
    19    8   19 1
    20    9   11 ar
    21    9   20 1
    22   10   11 ar
    23   10   21 1
    24   11   24 1
    25   12   25 1
    26   12   26 1
    27   12   27 1
    28   13   28 1
    29   13   29 1
    30   13   30 1
