@<TRIPOS>MOLECULE
DB00918
   48    50     0     0     0
SMALL
USER_CHARGES

@<TRIPOS>ATOM
      1 S1         -2.4164    0.1125   -1.2855 S.o2      1 <0>         0.0359
      2 O1         -2.7342    1.2257   -2.1600 O.2       1 <0>        -0.1577
      3 O2         -1.3480   -0.8141   -1.6098 O.2       1 <0>        -0.1577
      4 N1         -3.8342   -0.7612   -0.9521 N.pl3     1 <0>        -0.1808
      5 N2          2.7237    3.6505    0.0512 N.pl3     1 <0>        -0.3604
      6 N3          4.4849   -1.9352   -0.0183 N.3       1 <0>        -0.3080
      7 C1         -3.7659   -1.8525    0.0636 C.3       1 <0>         0.0202
      8 C2         -5.0888    0.0100   -0.7333 C.3       1 <0>         0.0202
      9 C3         -4.9623   -1.6210    0.9767 C.3       1 <0>        -0.0374
     10 C4         -5.9665   -0.9371    0.0698 C.3       1 <0>        -0.0374
     11 C5         -2.0866    0.7725    0.3304 C.3       1 <0>         0.1069
     12 C6         -0.8390    1.5962    0.2407 C.2       1 <0>        -0.0243
     13 C7          1.5692    1.7699    0.3799 C.2       1 <0>         0.0032
     14 C8          0.3994    0.9891    0.4654 C.2       1 <0>        -0.0475
     15 C9          2.9565    1.4983    0.5419 C.2       1 <0>        -0.0211
     16 C10         1.4506    3.1271    0.0725 C.2       1 <0>         0.0467
     17 C11        -0.9310    2.9504   -0.0641 C.2       1 <0>        -0.0550
     18 C12         3.5643    0.1936    0.8736 C.3       1 <0>        -0.0129
     19 C13         0.2155    3.7449   -0.1542 C.2       1 <0>        -0.0375
     20 C14         3.6405    2.6738    0.3338 C.2       1 <0>         0.0059
     21 C15         3.9134   -0.6406   -0.3727 C.3       1 <0>         0.0024
     22 C16         4.7634   -2.7213   -1.2212 C.3       1 <0>        -0.0130
     23 C17         3.5841   -2.6695    0.8714 C.3       1 <0>        -0.0130
     24 H1         -2.8297   -1.8963    0.6214 H         1 <0>         0.0444
     25 H2         -3.8748   -2.8034   -0.4709 H         1 <0>         0.0444
     26 H3         -5.5522    0.2672   -1.6897 H         1 <0>         0.0444
     27 H4         -4.9050    0.9256   -0.1649 H         1 <0>         0.0444
     28 H5         -4.6819   -0.9506    1.7982 H         1 <0>         0.0278
     29 H6         -5.3436   -2.5502    1.4094 H         1 <0>         0.0278
     30 H7         -6.4401   -1.6723   -0.5920 H         1 <0>         0.0278
     31 H8         -6.7515   -0.4138    0.6223 H         1 <0>         0.0278
     32 H9         -2.9279    1.3891    0.6558 H         1 <0>         0.0565
     33 H10        -1.9467   -0.0343    1.0521 H         1 <0>         0.0565
     34 H11         0.4642   -0.0694    0.7018 H         1 <0>         0.0627
     35 H12         4.4720    0.3515    1.4713 H         1 <0>         0.0326
     36 H13         2.8571   -0.3307    1.5253 H         1 <0>         0.0326
     37 H14        -1.9004    3.4125   -0.2363 H         1 <0>         0.0621
     38 H15         0.1459    4.8012   -0.3917 H         1 <0>         0.0638
     39 H16         4.6965    2.9043    0.3603 H         1 <0>         0.0810
     40 H17         2.9482    4.6162   -0.1448 H         1 <0>         0.1653
     41 H18         4.6341   -0.0777   -0.9803 H         1 <0>         0.0429
     42 H19         3.0127   -0.7664   -0.9898 H         1 <0>         0.0429
     43 H20         5.4552   -2.1845   -1.8800 H         1 <0>         0.0391
     44 H21         3.8529   -2.9482   -1.7878 H         1 <0>         0.0391
     45 H22         5.2520   -3.6665   -0.9596 H         1 <0>         0.0391
     46 H23         3.9312   -3.7026    0.9972 H         1 <0>         0.0391
     47 H24         2.5571   -2.7108    0.4899 H         1 <0>         0.0391
     48 H25         3.5822   -2.2521    1.8829 H         1 <0>         0.0391
@<TRIPOS>BOND
     1    1    2 2
     2    1    3 2
     3    1    4 1
     4    1   11 1
     5    4    7 1
     6    4    8 1
     7    5   16 1
     8    5   20 2
     9    5   40 1
    10    6   21 1
    11    6   22 1
    12    6   23 1
    13    7    9 1
    14    7   24 1
    15    7   25 1
    16    8   10 1
    17    8   26 1
    18    8   27 1
    19    9   10 1
    20    9   28 1
    21    9   29 1
    22   10   30 1
    23   10   31 1
    24   11   12 1
    25   11   32 1
    26   11   33 1
    27   12   14 2
    28   12   17 1
    29   13   14 1
    30   13   15 2
    31   13   16 2
    32   14   34 1
    33   15   18 1
    34   15   20 1
    35   16   19 1
    36   17   19 2
    37   17   37 1
    38   18   21 1
    39   18   35 1
    40   18   36 1
    41   19   38 1
    42   20   39 1
    43   21   41 1
    44   21   42 1
    45   22   43 1
    46   22   44 1
    47   22   45 1
    48   23   46 1
    49   23   47 1
    50   23   48 1
