@<TRIPOS>MOLECULE
DB00401
   52    53     0     0     0
SMALL
USER_CHARGES

@<TRIPOS>ATOM
      1 O1          1.8981    0.5440    0.4862 O.3       1 <0>        -0.4611
      2 O2         -4.2936   -0.6745    1.2860 O.3       1 <0>        -0.4646
      3 O3          1.0541    1.0036    2.5923 O.2       1 <0>        -0.2452
      4 O4         -3.9142   -1.5421   -0.8265 O.2       1 <0>        -0.2452
      5 O5          1.2910   -3.0293    2.0242 O.3       1 <0>        -0.5760
      6 O6          0.0130   -1.2727    2.3415 O.2       1 <0>         0.0415
      7 N1         -1.9097    2.4875   -0.4147 N.pl3     1 <0>        -0.3207
      8 N2          0.5196   -2.1405    1.5918 N.pl3     1 <0>         0.0799
      9 C1         -1.2611   -0.0980    0.5456 C.3       1 <0>         0.0570
     10 C2         -0.3189    1.1056    0.6633 C.2       1 <0>         0.0654
     11 C3         -2.6450    0.2780    0.0067 C.2       1 <0>         0.0654
     12 C4         -0.6403   -1.1504   -0.3275 C.ar      1 <0>         0.0419
     13 C5         -0.6677    2.3184    0.1768 C.2       1 <0>         0.0157
     14 C6         -2.8990    1.5189   -0.4668 C.2       1 <0>         0.0157
     15 C7          0.9443    0.8851    1.3860 C.2       1 <0>         0.3375
     16 C8          0.2088   -2.1159    0.2041 C.ar      1 <0>         0.2772
     17 C9         -0.9326   -1.1391   -1.6880 C.ar      1 <0>        -0.0512
     18 C10         0.1951    3.5512    0.2066 C.3       1 <0>        -0.0260
     19 C11        -3.6847   -0.7615    0.0788 C.2       1 <0>         0.3373
     20 C12        -4.2031    1.9755   -1.0629 C.3       1 <0>        -0.0260
     21 C13         4.1749   -0.0790   -0.0741 C.3       1 <0>        -0.0123
     22 C14         3.1939    0.2947    1.0406 C.3       1 <0>         0.0951
     23 C15         0.7711   -3.0799   -0.6328 C.ar      1 <0>         0.0159
     24 C16        -0.3701   -2.1031   -2.5250 C.ar      1 <0>        -0.0611
     25 C17         0.4817   -3.0733   -1.9973 C.ar      1 <0>        -0.0553
     26 C18         5.5374   -0.4390    0.5140 C.3       1 <0>        -0.0596
     27 C19         4.3181    1.0533   -1.0932 C.3       1 <0>        -0.0596
     28 C20        -5.3371   -1.6285    1.5096 C.3       1 <0>         0.0820
     29 H1         -1.5747   -0.4276    1.5363 H         1 <0>         0.0454
     30 H2         -2.1351    3.4075   -0.7762 H         1 <0>         0.1516
     31 H3         -1.5580   -0.3865   -2.1571 H         1 <0>         0.0623
     32 H4         -0.3001    4.3451    0.7761 H         1 <0>         0.0290
     33 H5          1.1727    3.3770    0.6649 H         1 <0>         0.0290
     34 H6          0.3701    3.9143   -0.8119 H         1 <0>         0.0290
     35 H7         -4.6208    2.7983   -0.4730 H         1 <0>         0.0290
     36 H8         -4.0462    2.3296   -2.0875 H         1 <0>         0.0290
     37 H9         -4.9550    1.1823   -1.1022 H         1 <0>         0.0290
     38 H10         3.7786   -0.9523   -0.6078 H         1 <0>         0.0328
     39 H11         3.5400    1.1939    1.5653 H         1 <0>         0.0700
     40 H12         3.1222   -0.5276    1.7623 H         1 <0>         0.0700
     41 H13         1.4405   -3.8513   -0.2607 H         1 <0>         0.0685
     42 H14        -0.5882   -2.0935   -3.5888 H         1 <0>         0.0618
     43 H15         0.9213   -3.8221   -2.6499 H         1 <0>         0.0620
     44 H16         6.2354   -0.7375   -0.2754 H         1 <0>         0.0233
     45 H17         5.4493   -1.2758    1.2150 H         1 <0>         0.0233
     46 H18         5.9760    0.4088    1.0513 H         1 <0>         0.0233
     47 H19         5.0227    0.7759   -1.8844 H         1 <0>         0.0233
     48 H20         4.6854    1.9698   -0.6189 H         1 <0>         0.0233
     49 H21         3.3588    1.2797   -1.5701 H         1 <0>         0.0233
     50 H22        -6.1371   -1.4936    0.7755 H         1 <0>         0.0661
     51 H23        -4.9365   -2.6457    1.4628 H         1 <0>         0.0661
     52 H24        -5.7453   -1.4575    2.5092 H         1 <0>         0.0661
@<TRIPOS>BOND
     1    1   15 1
     2    1   22 1
     3    2   19 1
     4    2   28 1
     5    3   15 2
     6    4   19 2
     7    5    8 1
     8    6    8 2
     9    7   13 1
    10    7   14 1
    11    7   30 1
    12    8   16 1
    13    9   10 1
    14    9   11 1
    15    9   12 1
    16    9   29 1
    17   10   13 2
    18   10   15 1
    19   11   14 2
    20   11   19 1
    21   12   16 ar
    22   12   17 ar
    23   13   18 1
    24   14   20 1
    25   16   23 ar
    26   17   24 ar
    27   17   31 1
    28   18   32 1
    29   18   33 1
    30   18   34 1
    31   20   35 1
    32   20   36 1
    33   20   37 1
    34   21   22 1
    35   21   26 1
    36   21   27 1
    37   21   38 1
    38   22   39 1
    39   22   40 1
    40   23   25 ar
    41   23   41 1
    42   24   25 ar
    43   24   42 1
    44   25   43 1
    45   26   44 1
    46   26   45 1
    47   26   46 1
    48   27   47 1
    49   27   48 1
    50   27   49 1
    51   28   50 1
    52   28   51 1
    53   28   52 1
