@<TRIPOS>MOLECULE
DB00922
   33    34     0     0     0
SMALL
USER_CHARGES

@<TRIPOS>ATOM
      1 O1          5.8892   -1.0254    0.7329 O.2       1 <0>        -0.2741
      2 N1          2.3901   -1.5725    0.5707 N.2       1 <0>        -0.1840
      3 N2          3.7259   -1.7776    0.6326 N.am      1 <0>        -0.2067
      4 N3         -3.6783    0.4748    0.1645 N.pl3     1 <0>        -0.2359
      5 N4         -4.5213   -0.5475   -0.0710 N.2       1 <0>        -0.1603
      6 N5         -7.2177   -2.4228   -0.5553 N.1       1 <0>        -0.1885
      7 N6         -6.7695    2.0538    0.3458 N.1       1 <0>        -0.1885
      8 C1          2.8888    0.7227   -0.1864 C.3       1 <0>         0.0089
      9 C2          4.1560    0.6168    0.6471 C.3       1 <0>         0.0336
     10 C3          1.9475   -0.4000    0.2279 C.2       1 <0>         0.0697
     11 C4          3.1894    0.6333   -1.6838 C.3       1 <0>        -0.0565
     12 C5          0.4656   -0.1694    0.2107 C.ar      1 <0>        -0.0019
     13 C6          4.6839   -0.7915    0.6521 C.2       1 <0>         0.2328
     14 C7         -0.0381    1.1075    0.4407 C.ar      1 <0>        -0.0510
     15 C8         -0.3969   -1.2341   -0.0345 C.ar      1 <0>        -0.0510
     16 C9         -1.4164    1.3217    0.4255 C.ar      1 <0>        -0.0385
     17 C10        -1.7752   -1.0199   -0.0498 C.ar      1 <0>        -0.0385
     18 C11        -2.2849    0.2581    0.1801 C.ar      1 <0>         0.0484
     19 C12        -5.7911   -0.3109   -0.0774 C.2       1 <0>         0.2336
     20 C13        -6.5783   -1.4785   -0.3407 C.1       1 <0>         0.1320
     21 C14        -6.3296    0.9969    0.1563 C.1       1 <0>         0.1320
     22 H1          2.4631    1.7090    0.0008 H         1 <0>         0.0366
     23 H2          3.9486    0.8888    1.6892 H         1 <0>         0.0365
     24 H3          4.9316    1.2916    0.2688 H         1 <0>         0.0365
     25 H4          3.8907    1.4168   -1.9890 H         1 <0>         0.0236
     26 H5          3.6183   -0.3357   -1.9605 H         1 <0>         0.0236
     27 H6          2.2703    0.7583   -2.2668 H         1 <0>         0.0236
     28 H7          3.9968   -2.7521    0.7175 H         1 <0>         0.1772
     29 H8          0.5935    1.9573    0.6717 H         1 <0>         0.0625
     30 H9         -0.0215   -2.2360   -0.2237 H         1 <0>         0.0625
     31 H10        -1.8020    2.3205    0.6139 H         1 <0>         0.0637
     32 H11        -2.4215   -1.8711   -0.2458 H         1 <0>         0.0637
     33 H12        -4.0073    1.4173    0.3361 H         1 <0>         0.1744
@<TRIPOS>BOND
     1    1   13 2
     2    2    3 1
     3    2   10 2
     4    3   13 am
     5    3   28 1
     6    4    5 1
     7    4   18 1
     8    4   33 1
     9    5   19 2
    10    6   20 3
    11    7   21 3
    12    8    9 1
    13    8   10 1
    14    8   11 1
    15    8   22 1
    16    9   13 1
    17    9   23 1
    18    9   24 1
    19   10   12 1
    20   11   25 1
    21   11   26 1
    22   11   27 1
    23   12   14 ar
    24   12   15 ar
    25   14   16 ar
    26   14   29 1
    27   15   17 ar
    28   15   30 1
    29   16   18 ar
    30   16   31 1
    31   17   18 ar
    32   17   32 1
    33   19   20 1
    34   19   21 1
