@<TRIPOS>MOLECULE
DB00277
   21    22     0     0     0
SMALL
USER_CHARGES

@<TRIPOS>ATOM
      1 O1          1.0713    2.6853    0.0001 O.2       1 <0>        -0.2652
      2 O2          1.8895   -1.9383    0.0005 O.2       1 <0>        -0.2462
      3 N1         -0.3212   -1.2124    0.0001 N.am      1 <0>        -0.2796
      4 N2          1.5101    0.3729    0.0004 N.am      1 <0>        -0.2622
      5 N3         -1.8218    1.9527    0.0003 N.pl3     1 <0>        -0.3389
      6 N4         -2.5442   -0.1564   -0.0002 N.2       1 <0>        -0.2179
      7 C1         -1.1756   -0.1183    0.0005 C.cat     1 <0>         0.1676
      8 C2         -0.7054    1.1665    0.0009 C.2       1 <0>         0.1488
      9 C3          0.6765    1.5228    0.0008 C.2       1 <0>         0.2820
     10 C4          1.0807   -1.0034    0.0007 C.2       1 <0>         0.3331
     11 C5         -0.8699   -2.5629   -0.0001 C.3       1 <0>         0.0181
     12 C6          2.9536    0.5856   -0.0005 C.3       1 <0>         0.0196
     13 C7         -2.9038    1.1108   -0.0004 C.2       1 <0>         0.0963
     14 H1         -1.8490    2.9638    0.0001 H         1 <0>         0.1670
     15 H2         -1.4853   -2.6969    0.8948 H         1 <0>         0.0458
     16 H3         -0.0793   -3.3175   -0.0004 H         1 <0>         0.0458
     17 H4         -1.4856   -2.6965   -0.8949 H         1 <0>         0.0458
     18 H5          3.2186    1.6454   -0.0004 H         1 <0>         0.0458
     19 H6          3.3789    0.1067   -0.8882 H         1 <0>         0.0458
     20 H7          3.3800    0.1064    0.8866 H         1 <0>         0.0458
     21 H8         -3.9180    1.4838   -0.0009 H         1 <0>         0.1027
@<TRIPOS>BOND
     1    1    9 2
     2    2   10 2
     3    3    7 2
     4    3   10 am
     5    3   11 1
     6    4    9 am
     7    4   10 am
     8    4   12 1
     9    5    8 2
    10    5   13 1
    11    5   14 1
    12    6    7 1
    13    6   13 2
    14    7    8 1
    15    8    9 1
    16   11   15 1
    17   11   16 1
    18   11   17 1
    19   12   18 1
    20   12   19 1
    21   12   20 1
    22   13   21 1
