@<TRIPOS>MOLECULE
DB00175
   66    67     0     0     0
SMALL
USER_CHARGES

@<TRIPOS>ATOM
      1 O1         -2.1395   -0.8338   -0.2714 O.3       1 <0>        -0.4604
      2 O2         -6.0376    0.9519   -0.2154 O.3       1 <0>        -0.3876
      3 O3          2.8384    1.7171   -2.5805 O.3       1 <0>        -0.3917
      4 O4         -2.6074   -2.1669   -2.0952 O.2       1 <0>        -0.2505
      5 O5          4.2173   -1.8084   -0.5579 O.3       1 <0>        -0.3912
      6 O6          7.5782   -2.2440    1.1769 O.3       1 <0>        -0.4806
      7 O7          5.5441   -2.0296    2.1675 O.2       1 <0>        -0.2509
      8 C1         -1.9517    1.6208   -0.1957 C.3       1 <0>         0.0245
      9 C2         -0.4550    1.5689    0.2299 C.3       1 <0>        -0.0247
     10 C3         -2.4249    0.3704   -0.9794 C.3       1 <0>         0.1127
     11 C4         -0.0424    2.8556    1.0048 C.3       1 <0>        -0.0219
     12 C5          0.4878    1.2964   -0.9481 C.3       1 <0>        -0.0467
     13 C6         -2.8521    1.9007    1.0072 C.2       1 <0>        -0.0423
     14 C7         -3.9313    0.4382   -1.2276 C.3       1 <0>         0.0146
     15 C8         -4.7205    0.4952    0.0821 C.3       1 <0>         0.0773
     16 C9         -1.0584    3.2017    2.0622 C.2       1 <0>        -0.0806
     17 C10         1.9172    1.0668   -0.4601 C.3       1 <0>        -0.0265
     18 C11        -4.0921    1.3880    1.1126 C.2       1 <0>        -0.0522
     19 C12        -2.3189    2.7496    2.0568 C.2       1 <0>        -0.0621
     20 C13         0.1936    4.0843    0.1203 C.3       1 <0>        -0.0587
     21 C14         2.9013    0.6992   -1.5787 C.3       1 <0>         0.0576
     22 C15         4.3654    0.5346   -1.1418 C.3       1 <0>        -0.0002
     23 C16        -2.5328   -1.9908   -0.8858 C.2       1 <0>         0.3102
     24 C17         4.6083   -0.5290   -0.0639 C.3       1 <0>         0.0676
     25 C18        -2.8974   -3.0301    0.1607 C.3       1 <0>         0.0534
     26 C19         6.0913   -0.5943    0.3016 C.3       1 <0>         0.0708
     27 C20        -1.6836   -3.8879    0.5467 C.3       1 <0>        -0.0432
     28 C21        -4.0240   -3.8968   -0.3947 C.3       1 <0>        -0.0523
     29 C22        -0.5400   -3.0591    1.1175 C.3       1 <0>        -0.0645
     30 C23         6.3528   -1.6803    1.3174 C.2       1 <0>         0.3072
     31 H1         -2.0752    2.4784   -0.8741 H         1 <0>         0.0388
     32 H2         -0.3524    0.7269    0.9329 H         1 <0>         0.0313
     33 H3         -1.9154    0.3414   -1.9501 H         1 <0>         0.0741
     34 H4          0.8897    2.6451    1.5444 H         1 <0>         0.0343
     35 H5          0.4385    2.1007   -1.6894 H         1 <0>         0.0269
     36 H6          0.1821    0.3824   -1.4685 H         1 <0>         0.0269
     37 H7         -4.1496    1.3316   -1.8299 H         1 <0>         0.0329
     38 H8         -4.3102   -0.3958   -1.8282 H         1 <0>         0.0329
     39 H9         -4.8189   -0.5091    0.5073 H         1 <0>         0.0639
     40 H10        -0.7366    3.8494    2.8739 H         1 <0>         0.0575
     41 H11         2.2963    1.9731    0.0235 H         1 <0>         0.0290
     42 H12         1.9122    0.2730    0.2954 H         1 <0>         0.0290
     43 H13        -4.6937    1.5967    1.9951 H         1 <0>         0.0600
     44 H14        -2.9782    3.0317    2.8735 H         1 <0>         0.0617
     45 H15         1.0534    3.9504   -0.5425 H         1 <0>         0.0235
     46 H16         0.4062    4.9690    0.7323 H         1 <0>         0.0235
     47 H17        -0.6799    4.3166   -0.4978 H         1 <0>         0.0235
     48 H18         2.5658   -0.2288   -2.0556 H         1 <0>         0.0594
     49 H19         4.7423    1.5039   -0.7896 H         1 <0>         0.0315
     50 H20         4.9541    0.2959   -2.0380 H         1 <0>         0.0315
     51 H21        -5.9753    1.8677   -0.5371 H         1 <0>         0.2102
     52 H22         4.0147   -0.3197    0.8313 H         1 <0>         0.0599
     53 H23        -3.2838   -2.5100    1.0463 H         1 <0>         0.0410
     54 H24         3.1207    2.5536   -2.1725 H         1 <0>         0.2098
     55 H25         6.6789   -0.8282   -0.5948 H         1 <0>         0.0403
     56 H26         6.4423    0.3568    0.7142 H         1 <0>         0.0403
     57 H27        -1.3148   -4.4389   -0.3273 H         1 <0>         0.0270
     58 H28        -1.9883   -4.6322    1.2921 H         1 <0>         0.0270
     59 H29        -4.8785   -3.2812   -0.6974 H         1 <0>         0.0238
     60 H30        -4.3730   -4.6079    0.3615 H         1 <0>         0.0238
     61 H31        -3.7004   -4.4693   -1.2711 H         1 <0>         0.0238
     62 H32         4.7292   -1.9883   -1.3651 H         1 <0>         0.2098
     63 H33        -0.0902   -2.4120    0.3583 H         1 <0>         0.0230
     64 H34         0.2491   -3.7206    1.4899 H         1 <0>         0.0230
     65 H35        -0.8799   -2.4372    1.9518 H         1 <0>         0.0230
     66 H36         7.7329   -2.9532    1.8368 H         1 <0>         0.2951
@<TRIPOS>BOND
     1    1   10 1
     2    1   23 1
     3    2   15 1
     4    2   51 1
     5    3   21 1
     6    3   54 1
     7    4   23 2
     8    5   24 1
     9    5   62 1
    10    6   30 1
    11    6   66 1
    12    7   30 2
    13    8    9 1
    14    8   10 1
    15    8   13 1
    16    8   31 1
    17    9   11 1
    18    9   12 1
    19    9   32 1
    20   10   14 1
    21   10   33 1
    22   11   16 1
    23   11   20 1
    24   11   34 1
    25   12   17 1
    26   12   35 1
    27   12   36 1
    28   13   18 2
    29   13   19 1
    30   14   15 1
    31   14   37 1
    32   14   38 1
    33   15   18 1
    34   15   39 1
    35   16   19 2
    36   16   40 1
    37   17   21 1
    38   17   41 1
    39   17   42 1
    40   18   43 1
    41   19   44 1
    42   20   45 1
    43   20   46 1
    44   20   47 1
    45   21   22 1
    46   21   48 1
    47   22   24 1
    48   22   49 1
    49   22   50 1
    50   23   25 1
    51   24   26 1
    52   24   52 1
    53   25   27 1
    54   25   28 1
    55   25   53 1
    56   26   30 1
    57   26   55 1
    58   26   56 1
    59   27   29 1
    60   27   57 1
    61   27   58 1
    62   28   59 1
    63   28   60 1
    64   28   61 1
    65   29   63 1
    66   29   64 1
    67   29   65 1
