@<TRIPOS>MOLECULE
DB00933
   52    55     0     0     0
SMALL
USER_CHARGES

@<TRIPOS>ATOM
      1 S1         -4.3549   -2.0779   -0.4945 S.3       1 <0>        -0.0857
      2 S2         -2.6858    4.0570   -0.7903 S.o       1 <0>         0.0507
      3 O1         -1.2778    4.1168   -1.3137 O.2       1 <0>        -0.2524
      4 N1          2.9369    0.8860    0.8531 N.3       1 <0>        -0.3023
      5 N2         -1.4303   -1.0264   -0.5667 N.pl3     1 <0>        -0.2982
      6 C1          2.1656    0.2857   -0.2601 C.3       1 <0>         0.0116
      7 C2          2.8676   -0.9886   -0.7715 C.3       1 <0>        -0.0373
      8 C3          0.7332   -0.0885    0.1464 C.3       1 <0>        -0.0212
      9 C4          4.3092   -0.7182   -1.1824 C.3       1 <0>        -0.0505
     10 C5          4.3147    1.2015    0.4367 C.3       1 <0>        -0.0011
     11 C6          5.0597   -0.0404   -0.0469 C.3       1 <0>        -0.0402
     12 C7         -0.0851   -0.6433   -1.0148 C.3       1 <0>         0.0188
     13 C8          2.3059    2.0978    1.3840 C.3       1 <0>        -0.0125
     14 C9         -2.4418   -0.0339   -0.6149 C.ar      1 <0>         0.0490
     15 C10        -1.5996   -2.3384   -0.0565 C.ar      1 <0>         0.0479
     16 C11        -3.8057   -0.3844   -0.5653 C.ar      1 <0>         0.0342
     17 C12        -2.8799   -2.9170    0.0488 C.ar      1 <0>         0.0341
     18 C13        -2.1360    1.3431   -0.6779 C.ar      1 <0>        -0.0235
     19 C14        -0.5084   -3.1093    0.4011 C.ar      1 <0>        -0.0393
     20 C15        -4.8048    0.6044   -0.6054 C.ar      1 <0>        -0.0451
     21 C16        -3.1329    2.3220   -0.7125 C.ar      1 <0>         0.0404
     22 C17        -3.0429   -4.2155    0.5635 C.ar      1 <0>        -0.0462
     23 C18        -4.4688    1.9521   -0.6794 C.ar      1 <0>        -0.0448
     24 C19        -0.6766   -4.3975    0.9165 C.ar      1 <0>        -0.0599
     25 C20        -1.9448   -4.9523    0.9950 C.ar      1 <0>        -0.0606
     26 C21        -2.6027    4.3608    0.9947 C.3       1 <0>         0.0163
     27 H1          2.1126    1.0084   -1.0870 H         1 <0>         0.0463
     28 H2          2.3713   -1.3990   -1.6547 H         1 <0>         0.0280
     29 H3          2.8524   -1.7668    0.0026 H         1 <0>         0.0280
     30 H4          0.7709   -0.7837    0.9919 H         1 <0>         0.0296
     31 H5          0.2239    0.7881    0.5508 H         1 <0>         0.0296
     32 H6          4.3251   -0.0750   -2.0708 H         1 <0>         0.0266
     33 H7          4.8060   -1.6561   -1.4542 H         1 <0>         0.0266
     34 H8          4.8734    1.6154    1.2853 H         1 <0>         0.0426
     35 H9          4.3151    1.9632   -0.3545 H         1 <0>         0.0426
     36 H10         5.1825   -0.7447    0.7857 H         1 <0>         0.0278
     37 H11         6.0655    0.2375   -0.3816 H         1 <0>         0.0278
     38 H12        -0.1302    0.0857   -1.8350 H         1 <0>         0.0468
     39 H13         0.3820   -1.5134   -1.4853 H         1 <0>         0.0468
     40 H14         2.0907    2.8304    0.5979 H         1 <0>         0.0391
     41 H15         2.9538    2.5789    2.1266 H         1 <0>         0.0391
     42 H16         1.3808    1.8670    1.9206 H         1 <0>         0.0391
     43 H17        -1.1086    1.6855   -0.7195 H         1 <0>         0.0648
     44 H18         0.5155   -2.7566    0.3537 H         1 <0>         0.0636
     45 H19        -5.8586    0.3338   -0.5786 H         1 <0>         0.0630
     46 H20        -4.0302   -4.6675    0.6340 H         1 <0>         0.0629
     47 H21        -5.2592    2.6971   -0.7060 H         1 <0>         0.0630
     48 H22         0.1874   -4.9648    1.2501 H         1 <0>         0.0618
     49 H23        -2.0807   -5.9538    1.3916 H         1 <0>         0.0618
     50 H24        -3.5913    4.2167    1.4373 H         1 <0>         0.0368
     51 H25        -2.2839    5.3936    1.1546 H         1 <0>         0.0368
     52 H26        -1.8803    3.6842    1.4576 H         1 <0>         0.0368
@<TRIPOS>BOND
     1    1   16 1
     2    1   17 1
     3    2    3 2
     4    2   21 1
     5    2   26 1
     6    4    6 1
     7    4   10 1
     8    4   13 1
     9    5   12 1
    10    5   14 1
    11    5   15 1
    12    6    7 1
    13    6    8 1
    14    6   27 1
    15    7    9 1
    16    7   28 1
    17    7   29 1
    18    8   12 1
    19    8   30 1
    20    8   31 1
    21    9   11 1
    22    9   32 1
    23    9   33 1
    24   10   11 1
    25   10   34 1
    26   10   35 1
    27   11   36 1
    28   11   37 1
    29   12   38 1
    30   12   39 1
    31   13   40 1
    32   13   41 1
    33   13   42 1
    34   14   16 ar
    35   14   18 ar
    36   15   17 ar
    37   15   19 ar
    38   16   20 ar
    39   17   22 ar
    40   18   21 ar
    41   18   43 1
    42   19   24 ar
    43   19   44 1
    44   20   23 ar
    45   20   45 1
    46   21   23 ar
    47   22   25 ar
    48   22   46 1
    49   23   47 1
    50   24   25 ar
    51   24   48 1
    52   25   49 1
    53   26   50 1
    54   26   51 1
    55   26   52 1
