@<TRIPOS>MOLECULE
DB00263
   31    32     0     0     0
SMALL
USER_CHARGES

@<TRIPOS>ATOM
      1 S1          0.4624   -1.3936    0.9131 S.o2      1 <0>         0.0746
      2 O1         -2.4951   -1.7770    0.2278 O.3       1 <0>        -0.3377
      3 O2          0.4439   -1.4799    2.3686 O.2       1 <0>        -0.1499
      4 O3          0.1983   -2.5978    0.1349 O.2       1 <0>        -0.1499
      5 N1         -0.6296   -0.1488    0.4373 N.pl3     1 <0>        -0.1831
      6 N2         -3.8639   -1.7570   -0.0102 N.2       1 <0>        -0.0810
      7 N3          5.7479    0.7981   -0.7049 N.pl3     1 <0>        -0.3580
      8 C1          2.0142   -0.7500    0.4379 C.ar      1 <0>         0.1087
      9 C2         -2.0075   -0.5016    0.2245 C.2       1 <0>         0.2399
     10 C3         -3.0480    0.3693   -0.0152 C.2       1 <0>         0.0350
     11 C4         -4.1712   -0.4645   -0.1520 C.2       1 <0>         0.0854
     12 C5          2.7515    0.0250    1.3331 C.ar      1 <0>        -0.0333
     13 C6          2.5168   -1.0106   -0.8371 C.ar      1 <0>        -0.0333
     14 C7         -2.9919    1.8381   -0.1068 C.3       1 <0>        -0.0330
     15 C8          3.9912    0.5395    0.9535 C.ar      1 <0>        -0.0392
     16 C9          3.7566   -0.4962   -1.2165 C.ar      1 <0>        -0.0392
     17 C10         4.4937    0.2790   -0.3212 C.ar      1 <0>         0.0247
     18 C11        -5.5652   -0.0735   -0.4207 C.3       1 <0>        -0.0188
     19 H1         -0.2951    0.7569    0.0885 H         1 <0>         0.1768
     20 H2          2.3770    0.2471    2.3284 H         1 <0>         0.0638
     21 H3          1.9558   -1.6063   -1.5517 H         1 <0>         0.0638
     22 H4         -2.4150    2.2593    0.7231 H         1 <0>         0.0280
     23 H5         -2.5162    2.1441   -1.0442 H         1 <0>         0.0280
     24 H6         -3.9896    2.2867   -0.0735 H         1 <0>         0.0280
     25 H7          4.5555    1.1434    1.6595 H         1 <0>         0.0636
     26 H8          4.1369   -0.7052   -2.2132 H         1 <0>         0.0636
     27 H9         -5.6278    0.5295   -1.3325 H         1 <0>         0.0294
     28 H10        -6.2154   -0.9447   -0.5535 H         1 <0>         0.0294
     29 H11        -5.9644    0.5180    0.4097 H         1 <0>         0.0294
     30 H12         6.2821    1.3615   -0.0570 H         1 <0>         0.1423
     31 H13         6.1119    0.6107   -1.6297 H         1 <0>         0.1423
@<TRIPOS>BOND
     1    1    3 2
     2    1    4 2
     3    1    5 1
     4    1    8 1
     5    2    6 1
     6    2    9 1
     7    5    9 1
     8    5   19 1
     9    6   11 2
    10    7   17 1
    11    7   30 1
    12    7   31 1
    13    8   12 ar
    14    8   13 ar
    15    9   10 2
    16   10   11 1
    17   10   14 1
    18   11   18 1
    19   12   15 ar
    20   12   20 1
    21   13   16 ar
    22   13   21 1
    23   14   22 1
    24   14   23 1
    25   14   24 1
    26   15   17 ar
    27   15   25 1
    28   16   17 ar
    29   16   26 1
    30   18   27 1
    31   18   28 1
    32   18   29 1
