@<TRIPOS>MOLECULE
DB00635
   52    55     0     0     0
SMALL
USER_CHARGES

@<TRIPOS>ATOM
      1 O1         -2.9124    0.2085    2.0650 O.3       1 <0>        -0.3804
      2 O2          0.9036    2.7609   -0.5824 O.2       1 <0>        -0.2970
      3 O3         -4.0602    1.9749   -0.1675 O.2       1 <0>        -0.2919
      4 O4         -6.5396    0.9596    0.4603 O.3       1 <0>        -0.3874
      5 O5          6.4363    0.2036    1.8724 O.2       1 <0>        -0.2879
      6 C1         -1.6101    0.4281   -0.0291 C.3       1 <0>         0.0134
      7 C2         -0.7558   -0.8079    0.3455 C.3       1 <0>        -0.0286
      8 C3          0.6475   -0.7813   -0.2792 C.3       1 <0>        -0.0267
      9 C4          1.4036    0.4937    0.2200 C.3       1 <0>         0.0331
     10 C5         -2.9455    0.0348    0.6517 C.3       1 <0>         0.1318
     11 C6         -1.6732   -1.9851    0.0233 C.3       1 <0>        -0.0463
     12 C7         -0.9057    1.6699    0.5275 C.3       1 <0>         0.0148
     13 C8         -3.0884   -1.4757    0.3640 C.3       1 <0>        -0.0162
     14 C9          2.8771    0.5751   -0.3161 C.3       1 <0>         0.0174
     15 C10         1.4323   -2.0561    0.0645 C.3       1 <0>        -0.0455
     16 C11         0.5135    1.7368   -0.0251 C.2       1 <0>         0.1384
     17 C12        -1.8092    0.6002   -1.5606 C.3       1 <0>        -0.0559
     18 C13         2.8537   -2.0067   -0.4844 C.3       1 <0>        -0.0302
     19 C14         3.5595   -0.7641   -0.0015 C.2       1 <0>        -0.0556
     20 C15        -4.1511    0.8056    0.2034 C.2       1 <0>         0.1902
     21 C16         2.9449    0.8123   -1.8417 C.3       1 <0>        -0.0517
     22 C17         3.6169    1.7306    0.3464 C.2       1 <0>        -0.0698
     23 C18         4.6961   -0.8756    0.7045 C.2       1 <0>        -0.0149
     24 C19        -5.4708    0.0647    0.2358 C.3       1 <0>         0.1052
     25 C20         4.7471    1.6239    1.0522 C.2       1 <0>        -0.0180
     26 C21         5.3815    0.3099    1.2559 C.2       1 <0>         0.1787
     27 H1         -0.6130   -0.8189    1.4386 H         1 <0>         0.0310
     28 H2          0.5510   -0.7465   -1.3696 H         1 <0>         0.0311
     29 H3          1.4714    0.4274    1.3188 H         1 <0>         0.0392
     30 H4         -1.4206   -2.8728    0.6123 H         1 <0>         0.0269
     31 H5         -1.6113   -2.2625   -1.0351 H         1 <0>         0.0269
     32 H6         -0.8188    1.6518    1.6193 H         1 <0>         0.0348
     33 H7         -1.4401    2.5864    0.2553 H         1 <0>         0.0348
     34 H8         -3.7329   -1.7004   -0.4923 H         1 <0>         0.0297
     35 H9         -3.4768   -2.0208    1.2322 H         1 <0>         0.0297
     36 H10         0.9259   -2.9352   -0.3509 H         1 <0>         0.0271
     37 H11         1.4637   -2.1935    1.1534 H         1 <0>         0.0271
     38 H12        -2.3705   -0.2269   -2.0063 H         1 <0>         0.0236
     39 H13        -2.3462    1.5237   -1.7983 H         1 <0>         0.0236
     40 H14        -0.8597    0.6686   -2.0996 H         1 <0>         0.0236
     41 H15         2.8374   -2.0234   -1.5801 H         1 <0>         0.0310
     42 H16         3.3836   -2.9153   -0.1736 H         1 <0>         0.0310
     43 H17         2.3527    0.0871   -2.4079 H         1 <0>         0.0241
     44 H18         2.5861    1.8075   -2.1243 H         1 <0>         0.0241
     45 H19         3.9776    0.7367   -2.2064 H         1 <0>         0.0241
     46 H20         3.2177    2.7332    0.2185 H         1 <0>         0.0582
     47 H21        -2.8297    1.1580    2.2559 H         1 <0>         0.2108
     48 H22         5.1462   -1.8402    0.9146 H         1 <0>         0.0655
     49 H23        -5.4866   -0.6497    1.0623 H         1 <0>         0.0637
     50 H24        -5.6317   -0.4582   -0.7107 H         1 <0>         0.0637
     51 H25         5.2283    2.4953    1.4810 H         1 <0>         0.0653
     52 H26        -6.5952    1.5480   -0.3120 H         1 <0>         0.2100
@<TRIPOS>BOND
     1    1   10 1
     2    1   47 1
     3    2   16 2
     4    3   20 2
     5    4   24 1
     6    4   52 1
     7    5   26 2
     8    6    7 1
     9    6   10 1
    10    6   12 1
    11    6   17 1
    12    7    8 1
    13    7   11 1
    14    7   27 1
    15    8    9 1
    16    8   15 1
    17    8   28 1
    18    9   14 1
    19    9   16 1
    20    9   29 1
    21   10   13 1
    22   10   20 1
    23   11   13 1
    24   11   30 1
    25   11   31 1
    26   12   16 1
    27   12   32 1
    28   12   33 1
    29   13   34 1
    30   13   35 1
    31   14   19 1
    32   14   21 1
    33   14   22 1
    34   15   18 1
    35   15   36 1
    36   15   37 1
    37   17   38 1
    38   17   39 1
    39   17   40 1
    40   18   19 1
    41   18   41 1
    42   18   42 1
    43   19   23 2
    44   20   24 1
    45   21   43 1
    46   21   44 1
    47   21   45 1
    48   22   25 2
    49   22   46 1
    50   23   26 1
    51   23   48 1
    52   24   49 1
    53   24   50 1
    54   25   26 1
    55   25   51 1
