@<TRIPOS>MOLECULE
DB00215
   45    47     0     0     0
SMALL
USER_CHARGES

@<TRIPOS>ATOM
      1 F1         -0.4161    5.6343   -0.0593 F         1 <0>        -0.2055
      2 O1         -0.6781   -0.3708   -1.6085 O.3       1 <0>        -0.3595
      3 N1          4.1463   -0.5414    0.1446 N.3       1 <0>        -0.3083
      4 N2         -6.9638   -2.7105    0.8294 N.1       1 <0>        -0.1909
      5 C1         -0.7803    0.0278   -0.2045 C.3       1 <0>         0.1201
      6 C2          0.3662   -0.6172    0.5655 C.3       1 <0>        -0.0142
      7 C3         -2.1276   -0.4819    0.2177 C.ar      1 <0>        -0.0060
      8 C4         -2.6997   -1.2045   -0.8203 C.ar      1 <0>        -0.0144
      9 C5          1.7193   -0.2566   -0.0452 C.3       1 <0>        -0.0370
     10 C6         -0.6835    1.5167   -0.1658 C.ar      1 <0>        -0.0113
     11 C7         -1.7786   -1.2343   -1.9790 C.3       1 <0>         0.0747
     12 C8          2.8645   -0.8782    0.7525 C.3       1 <0>        -0.0016
     13 C9         -2.7900   -0.3274    1.4266 C.ar      1 <0>        -0.0540
     14 C10        -3.9462   -1.7921   -0.6886 C.ar      1 <0>        -0.0386
     15 C11        -0.2588    2.1567    0.9976 C.ar      1 <0>        -0.0528
     16 C12        -1.0178    2.2654   -1.2936 C.ar      1 <0>        -0.0528
     17 C13        -4.0502   -0.9106    1.5734 C.ar      1 <0>        -0.0440
     18 C14        -4.6254   -1.6384    0.5212 C.ar      1 <0>         0.0521
     19 C15        -0.1684    3.5482    1.0335 C.ar      1 <0>        -0.0261
     20 C16        -0.9273    3.6569   -1.2578 C.ar      1 <0>        -0.0261
     21 C17        -0.5024    4.2983   -0.0941 C.ar      1 <0>         0.1234
     22 C18         4.2002   -1.0136   -1.2401 C.3       1 <0>        -0.0131
     23 C19         5.2498   -1.1123    0.9188 C.3       1 <0>        -0.0131
     24 C20        -5.9154   -2.2299    0.6911 C.1       1 <0>         0.0992
     25 H1          0.3443   -0.4021    1.6397 H         1 <0>         0.0300
     26 H2          0.2643   -1.7105    0.4961 H         1 <0>         0.0300
     27 H3          1.7161   -0.6290   -1.0741 H         1 <0>         0.0279
     28 H4          1.8736    0.8266   -0.0913 H         1 <0>         0.0279
     29 H5         -1.3843   -2.2384   -2.1588 H         1 <0>         0.0610
     30 H6         -2.2396   -0.8355   -2.8865 H         1 <0>         0.0610
     31 H7          2.8300   -0.4866    1.7770 H         1 <0>         0.0426
     32 H8          2.7287   -1.9660    0.8156 H         1 <0>         0.0426
     33 H9         -2.3479    0.2286    2.2461 H         1 <0>         0.0622
     34 H10        -4.3753   -2.3572   -1.5106 H         1 <0>         0.0634
     35 H11        -0.0162    1.6202    1.9082 H         1 <0>         0.0622
     36 H12        -1.3688    1.8070   -2.2135 H         1 <0>         0.0622
     37 H13        -4.5776   -0.7934    2.5178 H         1 <0>         0.0630
     38 H14         0.1559    4.0488    1.9411 H         1 <0>         0.0646
     39 H15        -1.1909    4.2417   -2.1340 H         1 <0>         0.0646
     40 H16         3.5911   -0.3960   -1.9071 H         1 <0>         0.0391
     41 H17         3.9023   -2.0638   -1.3390 H         1 <0>         0.0391
     42 H18         5.2201   -0.9223   -1.6340 H         1 <0>         0.0391
     43 H19         5.2137   -2.2074    0.9448 H         1 <0>         0.0391
     44 H20         5.2288   -0.7416    1.9498 H         1 <0>         0.0391
     45 H21         6.2147   -0.8078    0.4979 H         1 <0>         0.0391
@<TRIPOS>BOND
     1    1   21 1
     2    2    5 1
     3    2   11 1
     4    3   12 1
     5    3   22 1
     6    3   23 1
     7    4   24 3
     8    5    6 1
     9    5    7 1
    10    5   10 1
    11    6    9 1
    12    6   25 1
    13    6   26 1
    14    7    8 ar
    15    7   13 ar
    16    8   11 1
    17    8   14 ar
    18    9   12 1
    19    9   27 1
    20    9   28 1
    21   10   15 ar
    22   10   16 ar
    23   11   29 1
    24   11   30 1
    25   12   31 1
    26   12   32 1
    27   13   17 ar
    28   13   33 1
    29   14   18 ar
    30   14   34 1
    31   15   19 ar
    32   15   35 1
    33   16   20 ar
    34   16   36 1
    35   17   18 ar
    36   17   37 1
    37   18   24 1
    38   19   21 ar
    39   19   38 1
    40   20   21 ar
    41   20   39 1
    42   22   40 1
    43   22   41 1
    44   22   42 1
    45   23   43 1
    46   23   44 1
    47   23   45 1
