@<TRIPOS>MOLECULE
DB00665
   32    33     0     0     0
SMALL
USER_CHARGES

@<TRIPOS>ATOM
      1 F1          2.5966   -3.0113   -0.1798 F         1 <0>        -0.1656
      2 F2          4.3014   -2.0413   -1.1173 F         1 <0>        -0.1656
      3 F3          4.1711   -2.1472    1.0562 F         1 <0>        -0.1656
      4 O1         -1.2399   -1.5267    0.8599 O.2       1 <0>        -0.2724
      5 O2         -1.1569    2.6025   -1.1937 O.2       1 <0>        -0.2518
      6 O3          5.3961    1.6968    0.2527 O.3       1 <0>        -0.5760
      7 O4          5.4506   -0.4983    0.1248 O.2       1 <0>         0.0415
      8 N1         -0.7747    0.5355   -0.1471 N.am      1 <0>        -0.1925
      9 N2         -2.8841    1.1691   -0.5684 N.am      1 <0>        -0.2851
     10 N3          4.8240    0.5862    0.1556 N.pl3     1 <0>         0.0802
     11 C1         -3.0550   -0.1206    0.0444 C.3       1 <0>         0.1073
     12 C2         -1.5953   -0.4860    0.3186 C.2       1 <0>         0.2504
     13 C3         -3.6799   -1.1154   -0.9251 C.3       1 <0>        -0.0353
     14 C4         -3.8336   -0.0149    1.3491 C.3       1 <0>        -0.0353
     15 C5         -1.5498    1.5553   -0.6944 C.2       1 <0>         0.3138
     16 C6          0.6135    0.5419   -0.0723 C.ar      1 <0>         0.0464
     17 C7          1.3245   -0.6605   -0.1063 C.ar      1 <0>        -0.0216
     18 C8          1.3051    1.7511    0.0373 C.ar      1 <0>        -0.0334
     19 C9          2.7173   -0.6539   -0.0314 C.ar      1 <0>         0.1333
     20 C10         3.4041    0.5553    0.0779 C.ar      1 <0>         0.2849
     21 C11         2.6980    1.7579    0.1124 C.ar      1 <0>         0.0179
     22 C12         3.4441   -1.9592   -0.0710 C.3       1 <0>         0.4237
     23 H1         -3.6565    1.7430   -0.8926 H         1 <0>         0.1513
     24 H2         -4.6845   -0.7961   -1.2241 H         1 <0>         0.0255
     25 H3         -3.0805   -1.2144   -1.8378 H         1 <0>         0.0255
     26 H4         -3.7572   -2.1118   -0.4761 H         1 <0>         0.0255
     27 H5         -4.8463    0.3648    1.1738 H         1 <0>         0.0255
     28 H6         -3.9144   -0.9895    1.8431 H         1 <0>         0.0255
     29 H7         -3.3430    0.6682    2.0526 H         1 <0>         0.0255
     30 H8          0.8125   -1.6077   -0.2397 H         1 <0>         0.0644
     31 H9          0.7972    2.7072    0.1121 H         1 <0>         0.0638
     32 H10         3.1955    2.7198    0.2064 H         1 <0>         0.0686
@<TRIPOS>BOND
     1    1   22 1
     2    2   22 1
     3    3   22 1
     4    4   12 2
     5    5   15 2
     6    6   10 1
     7    7   10 2
     8    8   12 am
     9    8   15 am
    10    8   16 1
    11    9   11 1
    12    9   15 am
    13    9   23 1
    14   10   20 1
    15   11   12 1
    16   11   13 1
    17   11   14 1
    18   13   24 1
    19   13   25 1
    20   13   26 1
    21   14   27 1
    22   14   28 1
    23   14   29 1
    24   16   17 ar
    25   16   18 ar
    26   17   19 ar
    27   17   30 1
    28   18   21 ar
    29   18   31 1
    30   19   20 ar
    31   19   22 1
    32   20   21 ar
    33   21   32 1
