@<TRIPOS>MOLECULE
DB00950
   76    79     0     0     0
SMALL
USER_CHARGES

@<TRIPOS>ATOM
      1 O1         -3.0662   -0.3850   -1.8031 O.3       1 <0>        -0.3790
      2 O2          3.4168    3.6711   -2.2517 O.3       1 <0>        -0.3872
      3 O3          4.7381   -4.1774    0.3604 O.3       1 <0>        -0.4800
      4 O4          3.7215   -2.4601    1.4106 O.2       1 <0>        -0.2500
      5 N1         -0.6795    2.3846    0.6928 N.3       1 <0>        -0.3023
      6 C1         -2.8188    0.4015    0.3995 C.3       1 <0>        -0.0014
      7 C2         -1.3372    0.0127    0.4445 C.3       1 <0>        -0.0341
      8 C3         -2.9605    1.8439   -0.0983 C.3       1 <0>        -0.0341
      9 C4         -3.6127   -0.5621   -0.4782 C.3       1 <0>         0.1187
     10 C5         -0.5187    1.0311    1.2407 C.3       1 <0>        -0.0008
     11 C6         -2.0878    2.8019    0.7154 C.3       1 <0>        -0.0008
     12 C7          0.1486    3.3376    1.4315 C.3       1 <0>        -0.0010
     13 C8         -3.4565   -2.0534   -0.1323 C.ar      1 <0>        -0.0115
     14 C9         -5.0976   -0.1574   -0.4738 C.ar      1 <0>        -0.0115
     15 C10         1.6234    3.1916    1.0549 C.3       1 <0>        -0.0376
     16 C11         1.8406    3.4647   -0.4363 C.3       1 <0>        -0.0215
     17 C12        -3.4656   -3.0096   -1.1478 C.ar      1 <0>        -0.0555
     18 C13        -5.6859    0.3485   -1.6328 C.ar      1 <0>        -0.0555
     19 C14        -3.3062   -2.4490    1.1968 C.ar      1 <0>        -0.0555
     20 C15        -5.8550   -0.2968    0.6893 C.ar      1 <0>        -0.0555
     21 C16         3.3130    3.3560   -0.8620 C.3       1 <0>         0.0802
     22 C17        -3.3244   -4.3614   -0.8343 C.ar      1 <0>        -0.0614
     23 C18        -7.0317    0.7151   -1.6289 C.ar      1 <0>        -0.0614
     24 C19        -3.1650   -3.8008    1.5105 C.ar      1 <0>        -0.0614
     25 C20        -7.2010    0.0696    0.6931 C.ar      1 <0>        -0.0614
     26 C21         3.9133    1.9858   -0.6486 C.ar      1 <0>        -0.0191
     27 C22        -3.1741   -4.7570    0.4948 C.ar      1 <0>        -0.0617
     28 C23        -7.7893    0.5755   -0.4660 C.ar      1 <0>        -0.0617
     29 C24         5.0553    1.8392    0.1388 C.ar      1 <0>        -0.0558
     30 C25         3.3250    0.8672   -1.2388 C.ar      1 <0>        -0.0558
     31 C26         5.6118   -1.8969   -0.0431 C.3       1 <0>         0.0868
     32 C27         5.0207   -0.5442   -0.2545 C.ar      1 <0>        -0.0311
     33 C28         5.6091    0.5744    0.3360 C.ar      1 <0>        -0.0572
     34 C29         3.8787   -0.3976   -1.0418 C.ar      1 <0>        -0.0572
     35 C30         6.0581   -2.5089   -1.4106 C.3       1 <0>        -0.0456
     36 C31         6.8757   -1.9323    0.8802 C.3       1 <0>        -0.0456
     37 C32         4.5898   -2.8572    0.6408 C.2       1 <0>         0.3148
     38 H1         -3.1942    0.3841    1.4319 H         1 <0>         0.0336
     39 H2         -0.9089   -0.0391   -0.5639 H         1 <0>         0.0281
     40 H3         -1.1775   -0.9675    0.9018 H         1 <0>         0.0281
     41 H4         -3.9958    2.1929   -0.0181 H         1 <0>         0.0281
     42 H5         -2.6743    1.9310   -1.1540 H         1 <0>         0.0281
     43 H6         -0.8191    0.9963    2.2963 H         1 <0>         0.0427
     44 H7          0.5258    0.7066    1.1912 H         1 <0>         0.0427
     45 H8         -2.1873    3.8027    0.2774 H         1 <0>         0.0427
     46 H9         -2.4618    2.8586    1.7464 H         1 <0>         0.0427
     47 H10        -0.1510    4.3660    1.1894 H         1 <0>         0.0426
     48 H11         0.0226    3.2259    2.5160 H         1 <0>         0.0426
     49 H12         2.2004    3.9229    1.6352 H         1 <0>         0.0278
     50 H13         2.0094    2.2090    1.3409 H         1 <0>         0.0278
     51 H14        -2.2450   -0.8968   -1.8911 H         1 <0>         0.2111
     52 H15         1.2295    2.7934   -1.0516 H         1 <0>         0.0294
     53 H16         1.4848    4.4750   -0.6796 H         1 <0>         0.0294
     54 H17        -3.6018   -2.7368   -2.1904 H         1 <0>         0.0621
     55 H18        -5.1295    0.4742   -2.5566 H         1 <0>         0.0621
     56 H19        -3.3033   -1.7367    2.0153 H         1 <0>         0.0621
     57 H20        -5.4242   -0.6722    1.6113 H         1 <0>         0.0621
     58 H21         3.8924    4.1142   -0.3216 H         1 <0>         0.0643
     59 H22        -3.3365   -5.1067   -1.6243 H         1 <0>         0.0618
     60 H23        -7.4902    1.1101   -2.5308 H         1 <0>         0.0618
     61 H24        -3.0503   -4.1094    2.5454 H         1 <0>         0.0618
     62 H25        -7.7901   -0.0354    1.5995 H         1 <0>         0.0618
     63 H26        -3.0658   -5.8096    0.7393 H         1 <0>         0.0618
     64 H27        -8.8369    0.8619   -0.4627 H         1 <0>         0.0618
     65 H28         4.3274    3.4845   -2.5379 H         1 <0>         0.2102
     66 H29         5.5237    2.7020    0.6049 H         1 <0>         0.0621
     67 H30         2.4393    0.9608   -1.8610 H         1 <0>         0.0621
     68 H31         6.4968    0.5188    0.9562 H         1 <0>         0.0621
     69 H32         3.4006   -1.2555   -1.5070 H         1 <0>         0.0621
     70 H33         6.7300   -1.8258   -1.9435 H         1 <0>         0.0243
     71 H34         5.2009   -2.7138   -2.0620 H         1 <0>         0.0243
     72 H35         6.5898   -3.4579   -1.2748 H         1 <0>         0.0243
     73 H36         7.2384   -2.9601    1.0049 H         1 <0>         0.0243
     74 H37         6.6481   -1.5599    1.8862 H         1 <0>         0.0243
     75 H38         7.7007   -1.3447    0.4618 H         1 <0>         0.0243
     76 H39         4.0771   -4.7278    0.8319 H         1 <0>         0.2951
@<TRIPOS>BOND
     1    1    9 1
     2    1   51 1
     3    2   21 1
     4    2   65 1
     5    3   37 1
     6    3   76 1
     7    4   37 2
     8    5   10 1
     9    5   11 1
    10    5   12 1
    11    6    7 1
    12    6    8 1
    13    6    9 1
    14    6   38 1
    15    7   10 1
    16    7   39 1
    17    7   40 1
    18    8   11 1
    19    8   41 1
    20    8   42 1
    21    9   13 1
    22    9   14 1
    23   10   43 1
    24   10   44 1
    25   11   45 1
    26   11   46 1
    27   12   15 1
    28   12   47 1
    29   12   48 1
    30   13   17 ar
    31   13   19 ar
    32   14   18 ar
    33   14   20 ar
    34   15   16 1
    35   15   49 1
    36   15   50 1
    37   16   21 1
    38   16   52 1
    39   16   53 1
    40   17   22 ar
    41   17   54 1
    42   18   23 ar
    43   18   55 1
    44   19   24 ar
    45   19   56 1
    46   20   25 ar
    47   20   57 1
    48   21   26 1
    49   21   58 1
    50   22   27 ar
    51   22   59 1
    52   23   28 ar
    53   23   60 1
    54   24   27 ar
    55   24   61 1
    56   25   28 ar
    57   25   62 1
    58   26   29 ar
    59   26   30 ar
    60   27   63 1
    61   28   64 1
    62   29   33 ar
    63   29   66 1
    64   30   34 ar
    65   30   67 1
    66   31   32 1
    67   31   35 1
    68   31   36 1
    69   31   37 1
    70   32   33 ar
    71   32   34 ar
    72   33   68 1
    73   34   69 1
    74   35   70 1
    75   35   71 1
    76   35   72 1
    77   36   73 1
    78   36   74 1
    79   36   75 1
