@<TRIPOS>MOLECULE
DB00192
   47    49     0     0     0
SMALL
USER_CHARGES

@<TRIPOS>ATOM
      1 O1         -1.9896   -0.3186   -3.4928 O.2       1 <0>        -0.2747
      2 N1          3.0773    0.3614    0.4805 N.3       1 <0>        -0.3138
      3 N2         -3.7863   -0.5260   -2.0705 N.am      1 <0>        -0.3283
      4 C1         -1.5982   -0.1238   -1.1390 C.3       1 <0>         0.0975
      5 C2         -0.1233   -0.0278   -1.5320 C.3       1 <0>        -0.0297
      6 C3         -2.0547    1.1075   -0.3592 C.ar      1 <0>        -0.0204
      7 C4         -1.8417   -1.2343   -0.1192 C.ar      1 <0>        -0.0204
      8 C5         -2.5068    0.7357    0.9276 C.ar      1 <0>        -0.0131
      9 C6         -2.3766   -0.6979    1.0743 C.ar      1 <0>        -0.0131
     10 C7          0.7663    0.1292   -0.3024 C.3       1 <0>        -0.0389
     11 C8         -2.4550   -0.3354   -2.3559 C.2       1 <0>         0.2254
     12 C9          2.2398    0.1909   -0.7008 C.3       1 <0>        -0.0038
     13 C10        -2.0652    2.4330   -0.7673 C.ar      1 <0>        -0.0567
     14 C11        -1.6080   -2.5948   -0.2518 C.ar      1 <0>        -0.0567
     15 C12        -2.9736    1.6919    1.8153 C.ar      1 <0>        -0.0537
     16 C13        -2.6814   -1.5235    2.1448 C.ar      1 <0>        -0.0537
     17 C14        -2.5357    3.3955    0.1277 C.ar      1 <0>        -0.0614
     18 C15        -1.9153   -3.4257    0.8272 C.ar      1 <0>        -0.0614
     19 C16        -2.9854    3.0286    1.4065 C.ar      1 <0>        -0.0612
     20 C17        -2.4470   -2.8951    2.0138 C.ar      1 <0>        -0.0612
     21 C18         4.4861    0.4116    0.1156 C.3       1 <0>         0.0020
     22 C19         4.8961   -0.8781   -0.5899 C.3       1 <0>        -0.0499
     23 C20         5.3269    0.6427    1.3671 C.3       1 <0>        -0.0499
     24 H1          0.1830   -0.9274   -2.0835 H         1 <0>         0.0282
     25 H2          0.0428    0.8199   -2.2104 H         1 <0>         0.0282
     26 H3          0.5174    1.0471    0.2429 H         1 <0>         0.0278
     27 H4          0.6400   -0.7080    0.3934 H         1 <0>         0.0278
     28 H5          2.4608   -0.7451   -1.2229 H         1 <0>         0.0424
     29 H6          2.3958    1.0201   -1.4016 H         1 <0>         0.0424
     30 H7         -1.7206    2.7216   -1.7542 H         1 <0>         0.0621
     31 H8         -1.1987   -3.0099   -1.1664 H         1 <0>         0.0621
     32 H9         -3.3236    1.4247    2.8068 H         1 <0>         0.0624
     33 H10        -3.0915   -1.1289    3.0684 H         1 <0>         0.0624
     34 H11        -2.5549    4.4414   -0.1672 H         1 <0>         0.0618
     35 H12        -1.7419   -4.4956    0.7495 H         1 <0>         0.0618
     36 H13         2.8143    1.2176    0.9678 H         1 <0>         0.1222
     37 H14        -3.3473    3.7952    2.0865 H         1 <0>         0.0618
     38 H15        -2.6786   -3.5613    2.8408 H         1 <0>         0.0618
     39 H16        -4.4555   -0.6749   -2.8186 H         1 <0>         0.1450
     40 H17        -4.1671   -0.5181   -1.1303 H         1 <0>         0.1450
     41 H18         4.6664    1.2570   -0.5609 H         1 <0>         0.0455
     42 H19         5.9881   -0.9357   -0.6704 H         1 <0>         0.0245
     43 H20         4.5656   -1.7670   -0.0403 H         1 <0>         0.0245
     44 H21         4.5143   -0.9351   -1.6142 H         1 <0>         0.0245
     45 H22         5.0462    1.5781    1.8639 H         1 <0>         0.0245
     46 H23         6.3903    0.7108    1.1129 H         1 <0>         0.0245
     47 H24         5.2059   -0.1735    2.0885 H         1 <0>         0.0245
@<TRIPOS>BOND
     1    1   11 2
     2    2   12 1
     3    2   21 1
     4    2   36 1
     5    3   11 am
     6    3   39 1
     7    3   40 1
     8    4    5 1
     9    4    6 1
    10    4    7 1
    11    4   11 1
    12    5   10 1
    13    5   24 1
    14    5   25 1
    15    6    8 ar
    16    6   13 ar
    17    7    9 ar
    18    7   14 ar
    19    8    9 1
    20    8   15 ar
    21    9   16 ar
    22   10   12 1
    23   10   26 1
    24   10   27 1
    25   12   28 1
    26   12   29 1
    27   13   17 ar
    28   13   30 1
    29   14   18 ar
    30   14   31 1
    31   15   19 ar
    32   15   32 1
    33   16   20 ar
    34   16   33 1
    35   17   19 ar
    36   17   34 1
    37   18   20 ar
    38   18   35 1
    39   19   37 1
    40   20   38 1
    41   21   22 1
    42   21   23 1
    43   21   41 1
    44   22   42 1
    45   22   43 1
    46   22   44 1
    47   23   45 1
    48   23   46 1
    49   23   47 1
