@<TRIPOS>MOLECULE
DB00716
   44    46     0     0     0
SMALL
USER_CHARGES

@<TRIPOS>ATOM
      1 O1         -2.7595   -0.0052    0.1180 O.3       1 <0>        -0.4477
      2 O2          1.8800    4.3453   -0.1633 O.2       1 <0>        -0.2871
      3 O3         -3.1758    4.0414   -0.1301 O.2       1 <0>        -0.2870
      4 O4          4.7690    0.2034   -1.5672 O.3       1 <0>        -0.4761
      5 O5          5.3256    0.2926    0.6493 O.2       1 <0>        -0.2435
      6 O6         -4.7748   -1.5523    0.2274 O.3       1 <0>        -0.4750
      7 O7         -6.3223    0.1290    0.1337 O.2       1 <0>        -0.2417
      8 N1          2.0895    0.2803    0.0900 N.pl3     1 <0>        -0.3345
      9 C1          0.8024    0.8873    0.0488 C.ar      1 <0>         0.0601
     10 C2         -0.4001    0.1554    0.0966 C.ar      1 <0>         0.0197
     11 C3          0.6937    2.2937   -0.0538 C.ar      1 <0>         0.0464
     12 C4         -0.4627   -1.3329    0.2840 C.3       1 <0>        -0.0224
     13 C5         -1.6443    0.7956    0.0636 C.ar      1 <0>         0.1447
     14 C6         -1.7175    2.1817   -0.0231 C.ar      1 <0>         0.0651
     15 C7         -0.5511    2.9402   -0.0844 C.ar      1 <0>        -0.0346
     16 C8          2.1337   -1.1577    0.3598 C.3       1 <0>         0.0212
     17 C9          3.2147    1.0742   -0.1124 C.2       1 <0>         0.1309
     18 C10        -0.4332   -2.0790   -1.0529 C.3       1 <0>        -0.0517
     19 C11         1.9205    3.1217   -0.1407 C.2       1 <0>         0.1902
     20 C12         3.2135    2.4097   -0.2223 C.2       1 <0>         0.0163
     21 C13        -3.0411    2.8279   -0.0554 C.2       1 <0>         0.1933
     22 C14         2.2296   -1.4060    1.8529 C.3       1 <0>        -0.0471
     23 C15        -0.4648   -3.5860   -0.8543 C.3       1 <0>        -0.0650
     24 C16        -3.9943    0.6074    0.0886 C.2       1 <0>         0.2155
     25 C17        -4.2089    1.9261    0.0088 C.2       1 <0>         0.0352
     26 C18         4.5540    0.4847   -0.2675 C.2       1 <0>         0.3536
     27 C19        -5.1691   -0.2638    0.1503 C.2       1 <0>         0.3726
     28 H1          0.1185   -1.7672    1.0853 H         1 <0>         0.0315
     29 H2         -1.4358   -1.5977    0.7249 H         1 <0>         0.0315
     30 H3         -0.6081    4.0227   -0.1607 H         1 <0>         0.0633
     31 H4          1.6079   -1.8616   -0.2524 H         1 <0>         0.0489
     32 H5          3.1275   -1.4900    0.0184 H         1 <0>         0.0489
     33 H6         -1.3351   -1.8074   -1.6199 H         1 <0>         0.0266
     34 H7          0.3907   -1.7926   -1.7163 H         1 <0>         0.0266
     35 H8          4.1091    3.0008   -0.3777 H         1 <0>         0.0679
     36 H9          3.1800   -1.0283    2.2485 H         1 <0>         0.0247
     37 H10         1.4398   -0.9129    2.4289 H         1 <0>         0.0247
     38 H11         2.1980   -2.4802    2.0640 H         1 <0>         0.0247
     39 H12         0.4206   -3.9343   -0.3137 H         1 <0>         0.0230
     40 H13        -1.3527   -3.8899   -0.2905 H         1 <0>         0.0230
     41 H14        -0.4917   -4.0944   -1.8233 H         1 <0>         0.0230
     42 H15        -5.1924    2.3808   -0.0128 H         1 <0>         0.0695
     43 H16         5.6533   -0.1935   -1.7179 H         1 <0>         0.2955
     44 H17        -5.5365   -2.1691    0.2706 H         1 <0>         0.2955
@<TRIPOS>BOND
     1    1   13 1
     2    1   24 1
     3    2   19 2
     4    3   21 2
     5    4   26 1
     6    4   43 1
     7    5   26 2
     8    6   27 1
     9    6   44 1
    10    7   27 2
    11    8    9 1
    12    8   16 1
    13    8   17 2
    14    9   10 ar
    15    9   11 ar
    16   10   12 1
    17   10   13 ar
    18   11   15 ar
    19   11   19 1
    20   12   18 1
    21   12   28 1
    22   12   29 1
    23   13   14 ar
    24   14   15 ar
    25   14   21 1
    26   15   30 1
    27   16   22 1
    28   16   31 1
    29   16   32 1
    30   17   20 1
    31   17   26 1
    32   18   23 1
    33   18   33 1
    34   18   34 1
    35   19   20 1
    36   20   35 1
    37   21   25 1
    38   22   36 1
    39   22   37 1
    40   22   38 1
    41   23   39 1
    42   23   40 1
    43   23   41 1
    44   24   25 2
    45   24   27 1
    46   25   42 1
