@<TRIPOS>MOLECULE
DB00683
   36    39     0     0     0
SMALL
USER_CHARGES

@<TRIPOS>ATOM
      1 Cl1         0.5555    4.2889    1.9258 Cl        1 <0>        -0.0835
      2 F1          3.1269   -2.2836    1.1374 F         1 <0>        -0.2048
      3 N1         -2.0675   -0.6671   -0.0231 N.pl3     1 <0>        -0.2981
      4 N2          0.5964   -1.9124    0.8060 N.2       1 <0>        -0.2764
      5 N3         -3.5753   -2.0149   -0.9828 N.2       1 <0>        -0.2402
      6 C1         -1.3866    0.5103    0.3701 C.ar      1 <0>         0.0573
      7 C2         -1.7713   -1.9514    0.3835 C.cat     1 <0>         0.0646
      8 C3         -0.0307    0.4930    0.7530 C.ar      1 <0>         0.0258
      9 C4         -0.7004   -2.2571    1.3585 C.3       1 <0>         0.0823
     10 C5          0.8801   -0.6818    0.5432 C.2       1 <0>         0.0779
     11 C6         -3.1911   -0.7692   -0.8131 C.cat     1 <0>         0.1112
     12 C7         -2.6974   -2.7557   -0.2423 C.2       1 <0>         0.0511
     13 C8         -2.1038    1.7172    0.4102 C.ar      1 <0>        -0.0358
     14 C9          0.5526    1.6713    1.2510 C.ar      1 <0>        -0.0322
     15 C10         2.2284   -0.4311   -0.0479 C.ar      1 <0>         0.0357
     16 C11        -3.8151    0.3429   -1.5675 C.3       1 <0>        -0.0059
     17 C12        -1.4998    2.8823    0.8841 C.ar      1 <0>        -0.0414
     18 C13        -0.1795    2.8562    1.3184 C.ar      1 <0>         0.0417
     19 C14         3.2909   -1.2592    0.2882 C.ar      1 <0>         0.1325
     20 C15         2.4004    0.6291   -0.9279 C.ar      1 <0>        -0.0498
     21 C16         4.5489   -1.0227   -0.2663 C.ar      1 <0>        -0.0258
     22 C17         3.6584    0.8654   -1.4822 C.ar      1 <0>        -0.0610
     23 C18         4.7327    0.0395   -1.1513 C.ar      1 <0>        -0.0590
     24 H1         -0.8738   -1.7484    2.3148 H         1 <0>         0.0573
     25 H2         -0.7031   -3.3300    1.5828 H         1 <0>         0.0573
     26 H3         -2.7901   -3.8299   -0.1718 H         1 <0>         0.0848
     27 H4         -3.1630    1.7964    0.2116 H         1 <0>         0.0639
     28 H5          1.5862    1.6732    1.5921 H         1 <0>         0.0639
     29 H6         -4.5790    0.8510   -0.9724 H         1 <0>         0.0308
     30 H7         -3.0863    1.0558   -1.9627 H         1 <0>         0.0308
     31 H8         -4.3354   -0.0641   -2.4436 H         1 <0>         0.0308
     32 H9         -2.0853    3.7967    0.9409 H         1 <0>         0.0633
     33 H10         1.5809    1.2674   -1.2440 H         1 <0>         0.0625
     34 H11         5.3850   -1.6662   -0.0092 H         1 <0>         0.0646
     35 H12         3.7997    1.6865   -2.1791 H         1 <0>         0.0618
     36 H13         5.7116    0.2221   -1.5847 H         1 <0>         0.0618
@<TRIPOS>BOND
     1    1   18 1
     2    2   19 1
     3    3    6 1
     4    3    7 1
     5    3   11 2
     6    4    9 1
     7    4   10 2
     8    5   11 1
     9    5   12 2
    10    6    8 ar
    11    6   13 ar
    12    7    9 1
    13    7   12 1
    14    8   10 1
    15    8   14 ar
    16    9   24 1
    17    9   25 1
    18   10   15 1
    19   11   16 1
    20   12   26 1
    21   13   17 ar
    22   13   27 1
    23   14   18 ar
    24   14   28 1
    25   15   19 ar
    26   15   20 ar
    27   16   29 1
    28   16   30 1
    29   16   31 1
    30   17   18 ar
    31   17   32 1
    32   19   21 ar
    33   20   22 ar
    34   20   33 1
    35   21   23 ar
    36   21   34 1
    37   22   23 ar
    38   22   35 1
    39   23   36 1
