@<TRIPOS>MOLECULE
DB00986
   51    53     0     0     0
SMALL
USER_CHARGES

@<TRIPOS>ATOM
      1 O1          0.3871    0.4232   -0.2582 O.3       1 <0>        -0.4535
      2 O2         -2.2738   -0.1898    2.0812 O.3       1 <0>        -0.3730
      3 O3          0.1488    0.9112    1.9816 O.2       1 <0>        -0.2472
      4 N1          4.0191    0.3771    0.0652 N.4       1 <0>         0.2417
      5 C1          2.6137    0.2122    0.6795 C.3       1 <0>         0.0076
      6 C2          1.6867    0.9821   -0.2447 C.3       1 <0>         0.1473
      7 C3          3.8033    1.0584   -1.3005 C.3       1 <0>        -0.0269
      8 C4         -2.5237    0.7301   -0.0867 C.3       1 <0>         0.0026
      9 C5          2.3383    0.8324   -1.6032 C.3       1 <0>         0.0298
     10 C6         -1.6727   -0.1791    0.7825 C.3       1 <0>         0.1902
     11 C7         -3.9869    0.3031   -0.1519 C.3       1 <0>        -0.0467
     12 C8         -2.6240    2.1543    0.4504 C.3       1 <0>        -0.0467
     13 C9         -4.7142    1.5466   -0.6541 C.3       1 <0>        -0.0527
     14 C10        -3.8311    2.7373   -0.2769 C.3       1 <0>        -0.0527
     15 C11         4.8983    1.2414    0.9540 C.3       1 <0>        -0.0414
     16 C12         4.6762   -0.9834   -0.1187 C.3       1 <0>        -0.0414
     17 C13        -0.2876    0.4489    0.9344 C.2       1 <0>         0.3445
     18 C14        -1.5680   -1.6303    0.3326 C.ar      1 <0>        -0.0051
     19 C15        -1.4876   -2.6204    1.2896 C.ar      1 <0>        -0.0553
     20 C16        -1.5565   -1.9097   -1.0182 C.ar      1 <0>        -0.0553
     21 C17        -1.3913   -3.9495    0.8775 C.ar      1 <0>        -0.0614
     22 C18        -1.4603   -3.2387   -1.4304 C.ar      1 <0>        -0.0614
     23 C19        -1.3776   -4.2586   -0.4824 C.ar      1 <0>        -0.0617
     24 H1          2.6304    0.6017    1.7021 H         1 <0>         0.0852
     25 H2          2.3705   -0.8564    0.7127 H         1 <0>         0.0852
     26 H3          1.6376    2.0434    0.0326 H         1 <0>         0.0790
     27 H4          4.4798    0.6229   -2.0421 H         1 <0>         0.0816
     28 H5          4.0186    2.1265   -1.1843 H         1 <0>         0.0816
     29 H6         -2.1257    0.8013   -1.1078 H         1 <0>         0.0337
     30 H7          1.9465    1.5490   -2.3316 H         1 <0>         0.0355
     31 H8          2.1666   -0.1702   -2.0139 H         1 <0>         0.0355
     32 H9         -4.3835    0.0338    0.8340 H         1 <0>         0.0269
     33 H10        -4.1542   -0.5480   -0.8189 H         1 <0>         0.0269
     34 H11        -1.7226    2.7445    0.2564 H         1 <0>         0.0269
     35 H12        -2.8227    2.1948    1.5261 H         1 <0>         0.0269
     36 H13        -5.7140    1.6271   -0.2156 H         1 <0>         0.0265
     37 H14        -4.8358    1.5053   -1.7426 H         1 <0>         0.0265
     38 H15        -3.5120    3.2634   -1.1841 H         1 <0>         0.0265
     39 H16        -4.3658    3.4589    0.3489 H         1 <0>         0.0265
     40 H17         4.3967    2.2009    1.1118 H         1 <0>         0.0778
     41 H18         5.0396    0.7240    1.9075 H         1 <0>         0.0778
     42 H19         5.8579    1.3879    0.4495 H         1 <0>         0.0778
     43 H20         4.0530   -1.5830   -0.7887 H         1 <0>         0.0778
     44 H21         5.6684   -0.8314   -0.5541 H         1 <0>         0.0778
     45 H22         4.7569   -1.4611    0.8622 H         1 <0>         0.0778
     46 H23        -2.0581    0.6370    2.5431 H         1 <0>         0.2113
     47 H24        -1.4766   -2.4115    2.3547 H         1 <0>         0.0621
     48 H25        -1.6002   -1.1428   -1.7827 H         1 <0>         0.0621
     49 H26        -1.3220   -4.7437    1.6152 H         1 <0>         0.0618
     50 H27        -1.4449   -3.4796   -2.4894 H         1 <0>         0.0618
     51 H28        -1.3004   -5.2934   -0.8034 H         1 <0>         0.0618
@<TRIPOS>BOND
     1    1    6 1
     2    1   17 1
     3    2   10 1
     4    2   46 1
     5    3   17 2
     6    4    5 1
     7    4    7 1
     8    4   15 1
     9    4   16 1
    10    5    6 1
    11    5   24 1
    12    5   25 1
    13    6    9 1
    14    6   26 1
    15    7    9 1
    16    7   27 1
    17    7   28 1
    18    8   10 1
    19    8   11 1
    20    8   12 1
    21    8   29 1
    22    9   30 1
    23    9   31 1
    24   10   17 1
    25   10   18 1
    26   11   13 1
    27   11   32 1
    28   11   33 1
    29   12   14 1
    30   12   34 1
    31   12   35 1
    32   13   14 1
    33   13   36 1
    34   13   37 1
    35   14   38 1
    36   14   39 1
    37   15   40 1
    38   15   41 1
    39   15   42 1
    40   16   43 1
    41   16   44 1
    42   16   45 1
    43   18   19 ar
    44   18   20 ar
    45   19   21 ar
    46   19   47 1
    47   20   22 ar
    48   20   48 1
    49   21   23 ar
    50   21   49 1
    51   22   23 ar
    52   22   50 1
    53   23   51 1
