@<TRIPOS>MOLECULE
DB00755
   50    50     0     0     0
SMALL
USER_CHARGES

@<TRIPOS>ATOM
      1 O1          8.7356    1.6725    1.3287 O.3       1 <0>        -0.4775
      2 O2          8.8335    0.1055   -0.3218 O.2       1 <0>        -0.2458
      3 C1         -4.0784   -0.7921    0.3912 C.3       1 <0>        -0.0099
      4 C2         -5.4815   -0.1394    0.2551 C.3       1 <0>        -0.0436
      5 C3         -5.4608    1.3416    0.5880 C.3       1 <0>        -0.0486
      6 C4         -2.9769    0.0895   -0.2432 C.2       1 <0>        -0.0427
      7 C5         -4.5227    2.0755   -0.3585 C.3       1 <0>        -0.0314
      8 C6         -3.1991    1.3789   -0.6021 C.2       1 <0>        -0.0689
      9 C7         -4.1839   -2.1761   -0.2950 C.3       1 <0>        -0.0558
     10 C8         -3.7682   -1.0093    1.8900 C.3       1 <0>        -0.0558
     11 C9         -1.6801   -0.5466   -0.4066 C.2       1 <0>        -0.0579
     12 C10        -2.2010    2.2932   -1.2746 C.3       1 <0>        -0.0432
     13 C11        -0.5181    0.0787   -0.1571 C.2       1 <0>        -0.0586
     14 C12         0.8210   -0.4938   -0.2992 C.2       1 <0>        -0.0504
     15 C13         0.9181   -1.9260   -0.7730 C.3       1 <0>        -0.0397
     16 C14         1.9643    0.1755   -0.0356 C.2       1 <0>        -0.0588
     17 C15         3.3334   -0.2960   -0.1430 C.2       1 <0>        -0.0613
     18 C16         4.3905    0.4804    0.1530 C.2       1 <0>        -0.0586
     19 C17         5.8073    0.1058    0.0734 C.2       1 <0>        -0.0437
     20 C18         6.1259   -1.3010   -0.3635 C.3       1 <0>        -0.0395
     21 C19         6.7247    1.0329    0.4156 C.2       1 <0>         0.0252
     22 C20         8.1929    0.8473    0.4013 C.2       1 <0>         0.3298
     23 H1         -6.2057   -0.6480    0.9041 H         1 <0>         0.0274
     24 H2         -5.8531   -0.2602   -0.7721 H         1 <0>         0.0274
     25 H3         -5.1471    1.4986    1.6262 H         1 <0>         0.0269
     26 H4         -6.4703    1.7598    0.5009 H         1 <0>         0.0269
     27 H5         -4.3433    3.0779    0.0502 H         1 <0>         0.0310
     28 H6         -5.0219    2.2108   -1.3268 H         1 <0>         0.0310
     29 H7         -4.2645   -2.0765   -1.3837 H         1 <0>         0.0238
     30 H8         -3.3240   -2.8173   -0.0734 H         1 <0>         0.0238
     31 H9         -5.0710   -2.7183    0.0544 H         1 <0>         0.0238
     32 H10        -4.5701   -1.5711    2.3826 H         1 <0>         0.0238
     33 H11        -2.8420   -1.5791    2.0292 H         1 <0>         0.0238
     34 H12        -3.6482   -0.0602    2.4237 H         1 <0>         0.0238
     35 H13        -1.6820   -1.5608   -0.7885 H         1 <0>         0.0621
     36 H14        -1.4523    1.7630   -1.8685 H         1 <0>         0.0275
     37 H15        -1.7086    2.9362   -0.5385 H         1 <0>         0.0275
     38 H16        -2.7168    2.9461   -1.9892 H         1 <0>         0.0275
     39 H17        -0.5182    1.0845    0.2570 H         1 <0>         0.0620
     40 H18         0.4801   -2.0188   -1.7739 H         1 <0>         0.0278
     41 H19         1.9171   -2.3538   -0.8405 H         1 <0>         0.0278
     42 H20         0.3626   -2.5832   -0.0929 H         1 <0>         0.0278
     43 H21         1.8686    1.2076    0.3043 H         1 <0>         0.0620
     44 H22         3.5120   -1.3060   -0.4836 H         1 <0>         0.0618
     45 H23         4.1962    1.4995    0.4886 H         1 <0>         0.0620
     46 H24         5.8348   -1.4531   -1.4084 H         1 <0>         0.0278
     47 H25         7.1826   -1.5592   -0.2786 H         1 <0>         0.0278
     48 H26         5.5945   -2.0292    0.2600 H         1 <0>         0.0278
     49 H27         6.4005    2.0154    0.7561 H         1 <0>         0.0691
     50 H28         9.7134    1.5987    1.3582 H         1 <0>         0.2954
@<TRIPOS>BOND
     1    1   22 1
     2    1   50 1
     3    2   22 2
     4    3    4 1
     5    3    6 1
     6    3    9 1
     7    3   10 1
     8    4    5 1
     9    4   23 1
    10    4   24 1
    11    5    7 1
    12    5   25 1
    13    5   26 1
    14    6    8 2
    15    6   11 1
    16    7    8 1
    17    7   27 1
    18    7   28 1
    19    8   12 1
    20    9   29 1
    21    9   30 1
    22    9   31 1
    23   10   32 1
    24   10   33 1
    25   10   34 1
    26   11   13 2
    27   11   35 1
    28   12   36 1
    29   12   37 1
    30   12   38 1
    31   13   14 1
    32   13   39 1
    33   14   15 1
    34   14   16 2
    35   15   40 1
    36   15   41 1
    37   15   42 1
    38   16   17 1
    39   16   43 1
    40   17   18 2
    41   17   44 1
    42   18   19 1
    43   18   45 1
    44   19   20 1
    45   19   21 2
    46   20   46 1
    47   20   47 1
    48   20   48 1
    49   21   22 1
    50   21   49 1
