@<TRIPOS>MOLECULE
DB00349
   34    36     0     0     0
SMALL
USER_CHARGES

@<TRIPOS>ATOM
      1 Cl1         0.0571   -4.2586    1.7352 Cl        1 <0>        -0.0835
      2 O1         -0.8687    2.9820    0.4210 O.2       1 <0>        -0.2744
      3 O2          2.7711    3.0832   -0.4313 O.2       1 <0>        -0.2747
      4 N1         -0.5095    0.6654    0.3670 N.am      1 <0>        -0.2381
      5 N2          2.4274    0.7798   -0.4706 N.am      1 <0>        -0.2724
      6 C1          0.4188   -0.4393    0.4706 C.ar      1 <0>         0.0640
      7 C2          1.7743   -0.3920    0.0517 C.ar      1 <0>         0.0579
      8 C3          1.2359    2.1946    1.1359 C.3       1 <0>         0.1017
      9 C4         -0.1570    1.9951    0.6205 C.2       1 <0>         0.2330
     10 C5          2.2100    2.0744    0.0023 C.2       1 <0>         0.2284
     11 C6         -1.8620    0.3571   -0.0398 C.ar      1 <0>         0.0414
     12 C7         -0.0734   -1.6568    1.0072 C.ar      1 <0>        -0.0198
     13 C8          2.5344   -1.5847    0.1166 C.ar      1 <0>        -0.0371
     14 C9          3.4720    0.5977   -1.4795 C.3       1 <0>         0.0084
     15 C10         0.7087   -2.8068    1.0822 C.ar      1 <0>         0.0429
     16 C11         2.0123   -2.7736    0.6239 C.ar      1 <0>        -0.0415
     17 C12        -2.0979   -0.7256   -0.8787 C.ar      1 <0>        -0.0399
     18 C13        -2.9126    1.1462    0.4133 C.ar      1 <0>        -0.0399
     19 C14        -3.4033   -1.0234   -1.2704 C.ar      1 <0>        -0.0600
     20 C15        -4.2178    0.8483    0.0220 C.ar      1 <0>        -0.0600
     21 C16        -4.4631   -0.2365   -0.8200 C.ar      1 <0>        -0.0616
     22 H1          1.3108    3.2031    1.5601 H         1 <0>         0.0454
     23 H2          1.4749    1.5052    1.9515 H         1 <0>         0.0454
     24 H3         -1.0846   -1.7075    1.4105 H         1 <0>         0.0651
     25 H4          3.5762   -1.6050   -0.1963 H         1 <0>         0.0637
     26 H5          3.2016   -0.2058   -2.1718 H         1 <0>         0.0433
     27 H6          4.4199    0.3787   -0.9783 H         1 <0>         0.0433
     28 H7          3.6046    1.5126   -2.0654 H         1 <0>         0.0433
     29 H8          2.6447   -3.6563    0.6664 H         1 <0>         0.0633
     30 H9         -1.3018   -1.3308   -1.3026 H         1 <0>         0.0636
     31 H10        -2.7847    1.9569    1.1225 H         1 <0>         0.0636
     32 H11        -3.5935   -1.8603   -1.9360 H         1 <0>         0.0618
     33 H12        -5.0453    1.4513    0.3844 H         1 <0>         0.0618
     34 H13        -5.4796   -0.4687   -1.1243 H         1 <0>         0.0618
@<TRIPOS>BOND
     1    1   15 1
     2    2    9 2
     3    3   10 2
     4    4    6 1
     5    4    9 am
     6    4   11 1
     7    5    7 1
     8    5   10 am
     9    5   14 1
    10    6    7 ar
    11    6   12 ar
    12    7   13 ar
    13    8    9 1
    14    8   10 1
    15    8   22 1
    16    8   23 1
    17   11   17 ar
    18   11   18 ar
    19   12   15 ar
    20   12   24 1
    21   13   16 ar
    22   13   25 1
    23   14   26 1
    24   14   27 1
    25   14   28 1
    26   15   16 ar
    27   16   29 1
    28   17   19 ar
    29   17   30 1
    30   18   20 ar
    31   18   31 1
    32   19   21 ar
    33   19   32 1
    34   20   21 ar
    35   20   33 1
    36   21   34 1
