@<TRIPOS>MOLECULE
DB00936
   16    16     0     0     0
SMALL
USER_CHARGES

@<TRIPOS>ATOM
      1 O1         -0.1401   -2.3484    0.0372 O.3       1 <0>        -0.5059
      2 O2         -2.7877    0.7456    0.4298 O.3       1 <0>        -0.4770
      3 O3         -2.5878   -1.2598   -0.6213 O.2       1 <0>        -0.2450
      4 C1         -0.6272   -0.0020   -0.0756 C.ar      1 <0>         0.1001
      5 C2          0.2853   -1.0538    0.0063 C.ar      1 <0>         0.1308
      6 C3         -0.1714    1.3160   -0.1045 C.ar      1 <0>        -0.0442
      7 C4          1.6536   -0.7875    0.0593 C.ar      1 <0>        -0.0194
      8 C5          1.1969    1.5821   -0.0514 C.ar      1 <0>        -0.0608
      9 C6          2.1094    0.5305    0.0306 C.ar      1 <0>        -0.0583
     10 C7         -2.0598   -0.2578   -0.1308 C.2       1 <0>         0.3404
     11 H1         -0.8563    2.1565   -0.1807 H         1 <0>         0.0627
     12 H2          2.3760   -1.5969    0.1234 H         1 <0>         0.0654
     13 H3          1.5523    2.6082   -0.0767 H         1 <0>         0.0618
     14 H4          3.1747    0.7379    0.0712 H         1 <0>         0.0619
     15 H5          0.6331   -2.9357    0.0950 H         1 <0>         0.2922
     16 H6         -3.7511    0.5650    0.3884 H         1 <0>         0.2954
@<TRIPOS>BOND
     1    1    5 1
     2    1   15 1
     3    2   10 1
     4    2   16 1
     5    3   10 2
     6    4    5 ar
     7    4    6 ar
     8    4   10 1
     9    5    7 ar
    10    6    8 ar
    11    6   11 1
    12    7    9 ar
    13    7   12 1
    14    8    9 ar
    15    8   13 1
    16    9   14 1
