@<TRIPOS>MOLECULE
DB00934
   44    47     0     0     0
SMALL
USER_CHARGES

@<TRIPOS>ATOM
      1 N1         -4.5512   -0.0322   -0.4756 N.3       1 <0>        -0.3190
      2 C1          0.3971    0.3452   -0.1755 C.3       1 <0>         0.0213
      3 C2          2.7105   -0.6830   -0.9597 C.3       1 <0>         0.0098
      4 C3          0.4838    0.2719   -1.7389 C.3       1 <0>        -0.0385
      5 C4          1.8456   -0.3333   -2.1941 C.3       1 <0>        -0.0411
      6 C5          0.6324   -1.0993    0.3079 C.ar      1 <0>        -0.0331
      7 C6          1.6243    1.1719    0.2563 C.ar      1 <0>        -0.0331
      8 C7         -0.9496    0.9429    0.2416 C.3       1 <0>        -0.0382
      9 C8          1.8755   -1.6402   -0.1207 C.ar      1 <0>        -0.0359
     10 C9          2.8588    0.6113   -0.1719 C.ar      1 <0>        -0.0359
     11 C10        -2.1101    0.1438   -0.3424 C.3       1 <0>        -0.0393
     12 C11        -0.2175   -1.8703    1.0942 C.ar      1 <0>        -0.0574
     13 C12         1.6250    2.3482    0.9988 C.ar      1 <0>        -0.0574
     14 C13         2.2571   -2.9295    0.2298 C.ar      1 <0>        -0.0577
     15 C14         4.0693    1.2203    0.1356 C.ar      1 <0>        -0.0577
     16 C15        -3.4495    0.7266    0.1048 C.3       1 <0>        -0.0044
     17 C16         0.1681   -3.1678    1.4437 C.ar      1 <0>        -0.0615
     18 C17         2.8443    2.9596    1.3052 C.ar      1 <0>        -0.0615
     19 C18         1.3940   -3.6929    1.0152 C.ar      1 <0>        -0.0615
     20 C19         4.0556    2.4010    0.8771 C.ar      1 <0>        -0.0615
     21 C20        -5.8345    0.5333   -0.0835 C.3       1 <0>        -0.0158
     22 H1          3.6765   -1.1112   -1.2444 H         1 <0>         0.0397
     23 H2          0.3641    1.2684   -2.1836 H         1 <0>         0.0277
     24 H3         -0.2944   -0.3683   -2.1689 H         1 <0>         0.0277
     25 H4          1.6646   -1.2288   -2.8024 H         1 <0>         0.0275
     26 H5          2.3665    0.3878   -2.8368 H         1 <0>         0.0275
     27 H6         -1.0336    0.9720    1.3358 H         1 <0>         0.0277
     28 H7         -1.0278    1.9818   -0.1056 H         1 <0>         0.0277
     29 H8         -2.1007    0.2351   -1.4351 H         1 <0>         0.0278
     30 H9         -2.1022   -0.9248   -0.1397 H         1 <0>         0.0278
     31 H10        -1.1340   -1.4871    1.5259 H         1 <0>         0.0621
     32 H11         0.7042    2.8022    1.3483 H         1 <0>         0.0621
     33 H12         3.2073   -3.3400   -0.0956 H         1 <0>         0.0621
     34 H13         5.0109    0.7904   -0.1904 H         1 <0>         0.0621
     35 H14        -3.5108    0.6982    1.1996 H         1 <0>         0.0424
     36 H15        -3.5106    1.7758   -0.2093 H         1 <0>         0.0424
     37 H16        -0.4815   -3.7704    2.0733 H         1 <0>         0.0618
     38 H17         2.8534    3.8792    1.8843 H         1 <0>         0.0618
     39 H18         1.6766   -4.7017    1.3033 H         1 <0>         0.0618
     40 H19         4.9919    2.8921    1.1274 H         1 <0>         0.0618
     41 H20        -4.4998   -1.0025   -0.1664 H         1 <0>         0.1216
     42 H21        -5.9699    0.5084    1.0028 H         1 <0>         0.0388
     43 H22        -6.6425   -0.0494   -0.5363 H         1 <0>         0.0388
     44 H23        -5.9375    1.5653   -0.4343 H         1 <0>         0.0388
@<TRIPOS>BOND
     1    1   16 1
     2    1   21 1
     3    1   41 1
     4    2    4 1
     5    2    6 1
     6    2    7 1
     7    2    8 1
     8    3    5 1
     9    3    9 1
    10    3   10 1
    11    3   22 1
    12    4    5 1
    13    4   23 1
    14    4   24 1
    15    5   25 1
    16    5   26 1
    17    6    9 ar
    18    6   12 ar
    19    7   10 ar
    20    7   13 ar
    21    8   11 1
    22    8   27 1
    23    8   28 1
    24    9   14 ar
    25   10   15 ar
    26   11   16 1
    27   11   29 1
    28   11   30 1
    29   12   17 ar
    30   12   31 1
    31   13   18 ar
    32   13   32 1
    33   14   19 ar
    34   14   33 1
    35   15   20 ar
    36   15   34 1
    37   16   35 1
    38   16   36 1
    39   17   19 ar
    40   17   37 1
    41   18   20 ar
    42   18   38 1
    43   19   39 1
    44   20   40 1
    45   21   42 1
    46   21   43 1
    47   21   44 1
