@<TRIPOS>MOLECULE
DB00923
   56    59     0     0     0
SMALL
USER_CHARGES

@<TRIPOS>ATOM
      1 S1         -0.2845   -2.3944    2.0144 S.3       1 <0>        -0.1311
      2 S2         -4.1029    0.0639    0.4467 S.3       1 <0>        -0.0801
      3 O1          1.2339   -1.9585   -2.3579 O.2       1 <0>        -0.2731
      4 O2         -2.4594   -2.4875   -2.8702 O.3       1 <0>        -0.4763
      5 O3          4.0618   -1.8437   -0.9907 O.2       1 <0>        -0.2754
      6 O4         -1.8087   -0.3404   -2.4267 O.2       1 <0>        -0.2437
      7 O5         -5.1290    4.7256   -0.1506 O.3       1 <0>        -0.4793
      8 O6         -5.6906    3.1195   -1.6614 O.2       1 <0>        -0.2489
      9 N1         -0.2967   -2.4727   -0.6394 N.am      1 <0>        -0.2490
     10 N2          2.4500   -2.0559    0.6652 N.am      1 <0>        -0.3015
     11 N3         -6.4704    1.4059    0.4097 N.pl3     1 <0>        -0.2093
     12 N4         -6.6754   -0.7093   -0.0220 N.2       1 <0>        -0.1015
     13 N5          2.9882    2.6375    1.5512 N.3       1 <0>        -0.3261
     14 N6         -7.7813    1.2127    0.2084 N.2       1 <0>        -0.0427
     15 N7         -7.9007   -0.0827   -0.0556 N.2       1 <0>        -0.0222
     16 C1          0.1659   -3.2567    0.4913 C.3       1 <0>         0.1042
     17 C2          1.5934   -3.0069   -0.0425 C.3       1 <0>         0.1283
     18 C3          0.8861   -2.3994   -1.2875 C.2       1 <0>         0.2440
     19 C4         -1.5781   -2.0495   -0.7907 C.2       1 <0>         0.1228
     20 C5         -2.4572   -2.0740    0.2392 C.2       1 <0>        -0.0211
     21 C6         -2.0733   -2.4738    1.6622 C.3       1 <0>         0.0196
     22 C7         -3.9156   -1.6984    0.1303 C.3       1 <0>         0.0253
     23 C8          3.6301   -1.5480    0.1206 C.2       1 <0>         0.2180
     24 C9         -1.9493   -1.5030   -2.1045 C.2       1 <0>         0.3514
     25 C10         4.3250   -0.5851    1.0636 C.3       1 <0>         0.0494
     26 C11         5.1565    0.4497    0.3530 C.ar      1 <0>        -0.0342
     27 C12         4.5989    1.6636   -0.0260 C.ar      1 <0>        -0.0302
     28 C13         6.4892    0.1633    0.0867 C.ar      1 <0>        -0.0578
     29 C14        -5.8539    0.2351    0.2620 C.cat     1 <0>         0.2101
     30 C15         3.1675    1.9838    0.2546 C.3       1 <0>         0.0188
     31 C16         5.3877    2.6079   -0.6831 C.ar      1 <0>        -0.0571
     32 C17         7.2780    1.1076   -0.5705 C.ar      1 <0>        -0.0615
     33 C18         6.7272    2.3300   -0.9554 C.ar      1 <0>        -0.0614
     34 C19        -5.9678    2.7191    0.7258 C.3       1 <0>         0.1426
     35 C20        -5.5976    3.5013   -0.5044 C.2       1 <0>         0.3265
     36 H1         -0.1499   -4.3054    0.4412 H         1 <0>         0.0644
     37 H2          2.1334   -3.9336   -0.2703 H         1 <0>         0.0622
     38 H3         -2.4278   -3.4914    1.8600 H         1 <0>         0.0423
     39 H4         -2.5536   -1.8088    2.3871 H         1 <0>         0.0423
     40 H5          2.1888   -1.7541    1.6009 H         1 <0>         0.1495
     41 H6         -4.3028   -1.9330   -0.8671 H         1 <0>         0.0427
     42 H7         -4.5126   -2.2819    0.8408 H         1 <0>         0.0427
     43 H8          3.6124   -0.1204    1.7532 H         1 <0>         0.0407
     44 H9          4.9744   -1.1930    1.7087 H         1 <0>         0.0407
     45 H10        -2.7225   -2.1655   -3.7587 H         1 <0>         0.2954
     46 H11         6.9296   -0.7859    0.3792 H         1 <0>         0.0620
     47 H12         2.5295    1.0964    0.1931 H         1 <0>         0.0471
     48 H13         2.7828    2.6522   -0.5266 H         1 <0>         0.0471
     49 H14         4.9730    3.5654   -0.9875 H         1 <0>         0.0621
     50 H15         8.3208    0.8911   -0.7829 H         1 <0>         0.0618
     51 H16         7.3415    3.0653   -1.4668 H         1 <0>         0.0618
     52 H17        -6.7554    3.2542    1.2676 H         1 <0>         0.0626
     53 H18        -5.0972    2.6170    1.3793 H         1 <0>         0.0626
     54 H19         3.4665    3.5380    1.5487 H         1 <0>         0.1185
     55 H20         1.9996    2.8458    1.6870 H         1 <0>         0.1185
     56 H21        -4.8771    5.2609   -0.9332 H         1 <0>         0.2951
@<TRIPOS>BOND
     1    1   16 1
     2    1   21 1
     3    2   22 1
     4    2   29 1
     5    3   18 2
     6    4   24 1
     7    4   45 1
     8    5   23 2
     9    6   24 2
    10    7   35 1
    11    7   56 1
    12    8   35 2
    13    9   16 1
    14    9   18 am
    15    9   19 1
    16   10   17 1
    17   10   23 am
    18   10   40 1
    19   11   14 1
    20   11   29 2
    21   11   34 1
    22   12   15 2
    23   12   29 1
    24   13   30 1
    25   13   54 1
    26   13   55 1
    27   14   15 1
    28   16   17 1
    29   16   36 1
    30   17   18 1
    31   17   37 1
    32   19   20 2
    33   19   24 1
    34   20   21 1
    35   20   22 1
    36   21   38 1
    37   21   39 1
    38   22   41 1
    39   22   42 1
    40   23   25 1
    41   25   26 1
    42   25   43 1
    43   25   44 1
    44   26   27 ar
    45   26   28 ar
    46   27   30 1
    47   27   31 ar
    48   28   32 ar
    49   28   46 1
    50   30   47 1
    51   30   48 1
    52   31   33 ar
    53   31   49 1
    54   32   33 ar
    55   32   50 1
    56   33   51 1
    57   34   35 1
    58   34   52 1
    59   34   53 1
