@<TRIPOS>MOLECULE
DB00371
   33    32     0     0     0
SMALL
USER_CHARGES

@<TRIPOS>ATOM
      1 O1          0.0655   -1.8005   -0.0036 O.3       1 <0>        -0.4499
      2 O2         -2.4346    0.6567   -0.0631 O.3       1 <0>        -0.4499
      3 O3         -0.1120   -3.3323    1.7058 O.2       1 <0>        -0.2267
      4 O4         -3.5540    1.0192   -2.0418 O.2       1 <0>        -0.2267
      5 N1          0.1430   -4.0061   -0.4778 N.am      1 <0>        -0.2950
      6 N2         -4.6913    0.6181   -0.0841 N.am      1 <0>        -0.2950
      7 C1          0.0119    0.6451    0.2354 C.3       1 <0>         0.0363
      8 C2          1.3305    0.8226   -0.5747 C.3       1 <0>        -0.0416
      9 C3         -0.0520   -0.7363    0.9304 C.3       1 <0>         0.1025
     10 C4         -1.1905    0.8099   -0.7324 C.3       1 <0>         0.1025
     11 C5         -0.1141    1.7366    1.3169 C.3       1 <0>        -0.0533
     12 C6          2.6269    0.6964    0.2345 C.3       1 <0>        -0.0552
     13 C7          3.8501    0.8323   -0.6619 C.3       1 <0>        -0.0653
     14 C8          0.0201   -3.0665    0.5158 C.2       1 <0>         0.3977
     15 C9         -3.5560    0.7857   -0.8377 C.2       1 <0>         0.3977
     16 H1          1.3516    0.0853   -1.3883 H         1 <0>         0.0273
     17 H2          1.3189    1.8076   -1.0608 H         1 <0>         0.0273
     18 H3          0.7452   -0.8242    1.6782 H         1 <0>         0.0704
     19 H4         -1.0047   -0.8415    1.4655 H         1 <0>         0.0704
     20 H5         -1.1567    1.8050   -1.1952 H         1 <0>         0.0704
     21 H6         -1.1250    0.0634   -1.5343 H         1 <0>         0.0704
     22 H7         -1.0670    1.6685    1.8536 H         1 <0>         0.0237
     23 H8         -0.0509    2.7378    0.8762 H         1 <0>         0.0237
     24 H9          0.6770    1.6521    2.0691 H         1 <0>         0.0237
     25 H10         2.6774   -0.2756    0.7345 H         1 <0>         0.0263
     26 H11         2.6730    1.4698    1.0078 H         1 <0>         0.0263
     27 H12         3.8632    1.8057   -1.1625 H         1 <0>         0.0230
     28 H13         3.8640    0.0505   -1.4281 H         1 <0>         0.0230
     29 H14         4.7658    0.7428   -0.0690 H         1 <0>         0.0230
     30 H15         0.2506   -3.7361   -1.4497 H         1 <0>         0.1482
     31 H16         0.1303   -4.9991   -0.2707 H         1 <0>         0.1482
     32 H17        -4.6412    0.4262    0.9108 H         1 <0>         0.1482
     33 H18        -5.6149    0.6811   -0.4987 H         1 <0>         0.1482
@<TRIPOS>BOND
     1    1    9 1
     2    1   14 1
     3    2   10 1
     4    2   15 1
     5    3   14 2
     6    4   15 2
     7    5   14 am
     8    5   30 1
     9    5   31 1
    10    6   15 am
    11    6   32 1
    12    6   33 1
    13    7    8 1
    14    7    9 1
    15    7   10 1
    16    7   11 1
    17    8   12 1
    18    8   16 1
    19    8   17 1
    20    9   18 1
    21    9   19 1
    22   10   20 1
    23   10   21 1
    24   11   22 1
    25   11   23 1
    26   11   24 1
    27   12   13 1
    28   12   25 1
    29   12   26 1
    30   13   27 1
    31   13   28 1
    32   13   29 1
