@<TRIPOS>MOLECULE
DB00897
   35    38     0     0     0
SMALL
USER_CHARGES

@<TRIPOS>ATOM
      1 Cl1        -0.5073   -4.5542   -0.6041 Cl        1 <0>        -0.0835
      2 Cl2        -1.0539    1.5812    2.2136 Cl        1 <0>        -0.0829
      3 N1          2.1353    0.7435   -0.2312 N.pl3     1 <0>        -0.2811
      4 N2         -0.5501    1.7128   -1.3117 N.2       1 <0>        -0.2748
      5 N3          2.6872    2.8247   -0.6992 N.2       1 <0>        -0.1321
      6 N4          3.6125    2.3237    0.1839 N.2       1 <0>        -0.1342
      7 C1          1.4518   -0.4923   -0.2500 C.ar      1 <0>         0.0587
      8 C2          0.0880   -0.5820   -0.5919 C.ar      1 <0>         0.0258
      9 C3          1.8242    1.8668   -0.9638 C.cat     1 <0>         0.1595
     10 C4         -0.8234    0.6057   -0.7086 C.2       1 <0>         0.0766
     11 C5          0.7336    1.8921   -1.9623 C.3       1 <0>         0.1004
     12 C6          3.2877    1.0756    0.4328 C.cat     1 <0>         0.1349
     13 C7          2.1728   -1.6605    0.0467 C.ar      1 <0>        -0.0357
     14 C8         -2.1614    0.5331   -0.0493 C.ar      1 <0>         0.0189
     15 C9         -0.5006   -1.8529   -0.7162 C.ar      1 <0>        -0.0322
     16 C10         1.5636   -2.9113   -0.0575 C.ar      1 <0>        -0.0414
     17 C11         0.2346   -3.0085   -0.4541 C.ar      1 <0>         0.0417
     18 C12         3.9913    0.2505    1.4370 C.3       1 <0>        -0.0041
     19 C13        -2.3509    0.9520    1.2622 C.ar      1 <0>         0.0501
     20 C14        -3.2223    0.0306   -0.7942 C.ar      1 <0>        -0.0512
     21 C15        -3.6188    0.8673    1.8374 C.ar      1 <0>        -0.0427
     22 C16        -4.4902   -0.0540   -0.2190 C.ar      1 <0>        -0.0611
     23 C17        -4.6885    0.3645    1.0967 C.ar      1 <0>        -0.0603
     24 H1          0.7309    2.8643   -2.4678 H         1 <0>         0.0590
     25 H2          0.8921    1.1417   -2.7464 H         1 <0>         0.0590
     26 H3          3.2342   -1.6810    0.2468 H         1 <0>         0.0639
     27 H4         -1.5386   -1.9671   -1.0111 H         1 <0>         0.0639
     28 H5          2.1505   -3.8044    0.1426 H         1 <0>         0.0633
     29 H6          4.7254   -0.4104    0.9678 H         1 <0>         0.0308
     30 H7          4.5573    0.9054    2.1107 H         1 <0>         0.0308
     31 H8          3.3089   -0.3166    2.0760 H         1 <0>         0.0308
     32 H9         -3.0862   -0.2863   -1.8248 H         1 <0>         0.0625
     33 H10        -3.7902    1.1893    2.8614 H         1 <0>         0.0632
     34 H11        -5.3238   -0.4426   -0.7966 H         1 <0>         0.0618
     35 H12        -5.6759    0.2993    1.5443 H         1 <0>         0.0618
@<TRIPOS>BOND
     1    1   17 1
     2    2   19 1
     3    3    7 1
     4    3    9 1
     5    3   12 2
     6    4   10 2
     7    4   11 1
     8    5    6 2
     9    5    9 1
    10    6   12 1
    11    7    8 ar
    12    7   13 ar
    13    8   10 1
    14    8   15 ar
    15    9   11 1
    16   10   14 1
    17   11   24 1
    18   11   25 1
    19   12   18 1
    20   13   16 ar
    21   13   26 1
    22   14   19 ar
    23   14   20 ar
    24   15   17 ar
    25   15   27 1
    26   16   17 ar
    27   16   28 1
    28   18   29 1
    29   18   30 1
    30   18   31 1
    31   19   21 ar
    32   20   22 ar
    33   20   32 1
    34   21   23 ar
    35   21   33 1
    36   22   23 ar
    37   22   34 1
    38   23   35 1
