@<TRIPOS>MOLECULE
DB00344
   41    43     0     0     0
SMALL
USER_CHARGES

@<TRIPOS>ATOM
      1 N1         -4.3169    0.5918    0.1351 N.3       1 <0>        -0.3190
      2 C1          0.6069    0.2172    0.7126 C.3       1 <0>         0.0104
      3 C2         -0.5381    0.9245   -0.0258 C.3       1 <0>        -0.0410
      4 C3          0.5907   -1.2891    0.5016 C.ar      1 <0>        -0.0328
      5 C4          1.9594    0.8554    0.4340 C.ar      1 <0>        -0.0328
      6 C5         -1.8917    0.3911    0.4272 C.3       1 <0>        -0.0396
      7 C6          0.9547   -1.9012   -0.7138 C.ar      1 <0>        -0.0213
      8 C7          2.6329    0.7280   -0.7967 C.ar      1 <0>        -0.0213
      9 C8         -3.0263    1.1220   -0.2885 C.3       1 <0>        -0.0044
     10 C9          0.1681   -2.1045    1.5710 C.ar      1 <0>        -0.0574
     11 C10         2.5510    1.6287    1.4531 C.ar      1 <0>        -0.0574
     12 C11         1.3867   -1.1584   -1.9058 C.2       1 <0>        -0.0537
     13 C12         2.1075   -0.0288   -1.9416 C.2       1 <0>        -0.0537
     14 C13         0.8646   -3.3002   -0.8332 C.ar      1 <0>        -0.0543
     15 C14         3.8600    1.3914   -0.9812 C.ar      1 <0>        -0.0543
     16 C15         0.0993   -3.4909    1.4413 C.ar      1 <0>        -0.0614
     17 C16         3.7752    2.2672    1.2596 C.ar      1 <0>        -0.0614
     18 C17         0.4458   -4.0891    0.2372 C.ar      1 <0>        -0.0612
     19 C18         4.4290    2.1505    0.0405 C.ar      1 <0>        -0.0612
     20 C19        -5.4067    1.2575   -0.5645 C.3       1 <0>        -0.0158
     21 H1          0.4137    0.3805    1.7835 H         1 <0>         0.0398
     22 H2         -0.4887    2.0028    0.1768 H         1 <0>         0.0275
     23 H3         -0.4529    0.8163   -1.1126 H         1 <0>         0.0275
     24 H4         -1.9814   -0.6789    0.2081 H         1 <0>         0.0278
     25 H5         -1.9977    0.5147    1.5125 H         1 <0>         0.0278
     26 H6         -2.9674    2.1949   -0.0682 H         1 <0>         0.0424
     27 H7         -2.9086    0.9941   -1.3717 H         1 <0>         0.0424
     28 H8         -0.1200   -1.6598    2.5211 H         1 <0>         0.0621
     29 H9          2.0538    1.7461    2.4136 H         1 <0>         0.0621
     30 H10         1.1072   -1.6044   -2.8589 H         1 <0>         0.0624
     31 H11         2.3667    0.3691   -2.9213 H         1 <0>         0.0624
     32 H12         1.1288   -3.7938   -1.7669 H         1 <0>         0.0624
     33 H13         4.3921    1.3173   -1.9280 H         1 <0>         0.0624
     34 H14        -0.2300   -4.0995    2.2781 H         1 <0>         0.0618
     35 H15         4.2121    2.8588    2.0584 H         1 <0>         0.0618
     36 H16        -4.4281    0.7235    1.1400 H         1 <0>         0.1216
     37 H17         0.3889   -5.1680    0.1278 H         1 <0>         0.0618
     38 H18         5.3799    2.6501   -0.1185 H         1 <0>         0.0618
     39 H19        -5.3372    1.1030   -1.6462 H         1 <0>         0.0388
     40 H20        -5.4214    2.3323   -0.3560 H         1 <0>         0.0388
     41 H21        -6.3619    0.8378   -0.2338 H         1 <0>         0.0388
@<TRIPOS>BOND
     1    1    9 1
     2    1   20 1
     3    1   36 1
     4    2    3 1
     5    2    4 1
     6    2    5 1
     7    2   21 1
     8    3    6 1
     9    3   22 1
    10    3   23 1
    11    4    7 ar
    12    4   10 ar
    13    5    8 ar
    14    5   11 ar
    15    6    9 1
    16    6   24 1
    17    6   25 1
    18    7   12 1
    19    7   14 ar
    20    8   13 1
    21    8   15 ar
    22    9   26 1
    23    9   27 1
    24   10   16 ar
    25   10   28 1
    26   11   17 ar
    27   11   29 1
    28   12   13 2
    29   12   30 1
    30   13   31 1
    31   14   18 ar
    32   14   32 1
    33   15   19 ar
    34   15   33 1
    35   16   18 ar
    36   16   34 1
    37   17   19 ar
    38   17   35 1
    39   18   37 1
    40   19   38 1
    41   20   39 1
    42   20   40 1
    43   20   41 1
