@<TRIPOS>MOLECULE
DB00221
   38    38     0     0     0
SMALL
USER_CHARGES

@<TRIPOS>ATOM
      1 O1         -0.1398   -0.3753   -2.1789 O.3       1 <0>        -0.3856
      2 O2          3.8711    2.4847    1.1434 O.3       1 <0>        -0.5033
      3 O3          5.5816    0.4757    0.2685 O.3       1 <0>        -0.5033
      4 N1         -2.1640   -0.5214   -0.1307 N.3       1 <0>        -0.3083
      5 C1         -0.7324   -0.5592    0.1963 C.3       1 <0>         0.0377
      6 C2          0.0655    0.2039   -0.8911 C.3       1 <0>         0.0955
      7 C3         -0.2847   -2.0248    0.3671 C.3       1 <0>        -0.0377
      8 C4         -2.6143    0.8505   -0.2865 C.3       1 <0>         0.0023
      9 C5          1.5485    0.2795   -0.5773 C.ar      1 <0>        -0.0140
     10 C6         -1.0938   -2.7813    1.4153 C.3       1 <0>        -0.0638
     11 C7         -2.3976    1.6288    1.0081 C.3       1 <0>        -0.0499
     12 C8         -4.0849    0.8594   -0.6916 C.3       1 <0>        -0.0499
     13 C9          2.0271    1.3560    0.1451 C.ar      1 <0>        -0.0109
     14 C10         2.3812   -0.7293   -1.0225 C.ar      1 <0>        -0.0524
     15 C11         3.3900    1.4261    0.4333 C.ar      1 <0>         0.1586
     16 C12         3.7443   -0.6590   -0.7345 C.ar      1 <0>        -0.0162
     17 C13         4.2487    0.4187   -0.0065 C.ar      1 <0>         0.1582
     18 H1         -0.5525   -0.0926    1.1725 H         1 <0>         0.0489
     19 H2         -0.2336    1.2513   -0.9823 H         1 <0>         0.0659
     20 H3          0.7616   -2.0626    0.6871 H         1 <0>         0.0279
     21 H4         -0.3514   -2.5630   -0.5864 H         1 <0>         0.0279
     22 H5         -2.3422   -1.0502   -0.9834 H         1 <0>         0.1225
     23 H6         -2.1296    1.3754   -1.1131 H         1 <0>         0.0455
     24 H7         -0.6755   -3.7830    1.5590 H         1 <0>         0.0230
     25 H8         -1.0684   -2.2637    2.3795 H         1 <0>         0.0230
     26 H9         -2.1384   -2.9013    1.1125 H         1 <0>         0.0230
     27 H10        -2.9318    2.5856    0.9692 H         1 <0>         0.0245
     28 H11        -2.7809    1.0840    1.8787 H         1 <0>         0.0245
     29 H12        -1.3466    1.8761    1.1850 H         1 <0>         0.0245
     30 H13        -4.2384    0.3239   -1.6355 H         1 <0>         0.0245
     31 H14        -4.4450    1.8846   -0.8316 H         1 <0>         0.0245
     32 H15        -4.7135    0.3864    0.0715 H         1 <0>         0.0245
     33 H16         1.3550    2.1375    0.4892 H         1 <0>         0.0659
     34 H17         2.0090   -1.5781   -1.5879 H         1 <0>         0.0622
     35 H18        -1.0780   -0.2677   -2.4078 H         1 <0>         0.2103
     36 H19         4.4018   -1.4511   -1.0825 H         1 <0>         0.0655
     37 H20         3.1343    3.0808    1.3622 H         1 <0>         0.2923
     38 H21         6.0176   -0.3051   -0.1137 H         1 <0>         0.2923
@<TRIPOS>BOND
     1    1    6 1
     2    1   35 1
     3    2   15 1
     4    2   37 1
     5    3   17 1
     6    3   38 1
     7    4    5 1
     8    4    8 1
     9    4   22 1
    10    5    6 1
    11    5    7 1
    12    5   18 1
    13    6    9 1
    14    6   19 1
    15    7   10 1
    16    7   20 1
    17    7   21 1
    18    8   11 1
    19    8   12 1
    20    8   23 1
    21    9   13 ar
    22    9   14 ar
    23   10   24 1
    24   10   25 1
    25   10   26 1
    26   11   27 1
    27   11   28 1
    28   11   29 1
    29   12   30 1
    30   12   31 1
    31   12   32 1
    32   13   15 ar
    33   13   33 1
    34   14   16 ar
    35   14   34 1
    36   15   17 ar
    37   16   17 ar
    38   16   36 1
