@<TRIPOS>MOLECULE
DB00676
   28    29     0     0     0
SMALL
USER_CHARGES

@<TRIPOS>ATOM
      1 O1          0.0817   -0.7020   -0.0008 O.3       1 <0>        -0.4564
      2 O2          1.3950   -2.5924    0.0006 O.2       1 <0>        -0.2450
      3 C1         -2.3051   -0.6174    0.0005 C.ar      1 <0>        -0.0103
      4 C2         -1.0995   -1.5108    0.0007 C.3       1 <0>         0.1178
      5 C3          2.4006   -0.4306   -0.0008 C.ar      1 <0>         0.0590
      6 C4         -2.8574   -0.2065    1.2084 C.ar      1 <0>        -0.0554
      7 C5         -2.8586   -0.2088   -1.2076 C.ar      1 <0>        -0.0554
      8 C6          1.2817   -1.3594   -0.0006 C.2       1 <0>         0.3395
      9 C7         -3.9780    0.6240    1.2081 C.ar      1 <0>        -0.0614
     10 C8         -3.9792    0.6218   -1.2078 C.ar      1 <0>        -0.0614
     11 C9          3.7086   -0.9148    0.0004 C.ar      1 <0>        -0.0478
     12 C10         2.1659    0.9444   -0.0017 C.ar      1 <0>        -0.0478
     13 C11        -4.5389    1.0381    0.0000 C.ar      1 <0>        -0.0617
     14 C12         4.7821   -0.0241    0.0006 C.ar      1 <0>        -0.0610
     15 C13         3.2393    1.8350   -0.0013 C.ar      1 <0>        -0.0610
     16 C14         4.5473    1.3508   -0.0002 C.ar      1 <0>        -0.0617
     17 H1         -1.1037   -2.1556    0.8882 H         1 <0>         0.0749
     18 H2         -1.1047   -2.1573   -0.8857 H         1 <0>         0.0749
     19 H3         -2.4271   -0.5212    2.1551 H         1 <0>         0.0621
     20 H4         -2.4292   -0.5253   -2.1542 H         1 <0>         0.0621
     21 H5         -4.4135    0.9488    2.1485 H         1 <0>         0.0618
     22 H6         -4.4157    0.9448   -2.1484 H         1 <0>         0.0618
     23 H7          3.9137   -1.9822    0.0011 H         1 <0>         0.0626
     24 H8          1.1649    1.3667   -0.0026 H         1 <0>         0.0626
     25 H9         -5.4114    1.6850   -0.0001 H         1 <0>         0.0618
     26 H10         5.8007   -0.4010    0.0016 H         1 <0>         0.0618
     27 H11         3.0572    2.9059   -0.0021 H         1 <0>         0.0618
     28 H12         5.3831    2.0443    0.0000 H         1 <0>         0.0618
@<TRIPOS>BOND
     1    1    4 1
     2    1    8 1
     3    2    8 2
     4    3    4 1
     5    3    6 ar
     6    3    7 ar
     7    4   17 1
     8    4   18 1
     9    5    8 1
    10    5   11 ar
    11    5   12 ar
    12    6    9 ar
    13    6   19 1
    14    7   10 ar
    15    7   20 1
    16    9   13 ar
    17    9   21 1
    18   10   13 ar
    19   10   22 1
    20   11   14 ar
    21   11   23 1
    22   12   15 ar
    23   12   24 1
    24   13   25 1
    25   14   16 ar
    26   14   26 1
    27   15   16 ar
    28   15   27 1
    29   16   28 1
