@<TRIPOS>MOLECULE
DB00935
   43    44     0     0     0
SMALL
USER_CHARGES

@<TRIPOS>ATOM
      1 O1         -1.9568    2.2826   -0.0750 O.3       1 <0>        -0.5062
      2 N1          4.1403   -0.7860   -0.0661 N.pl3     1 <0>        -0.2335
      3 N2          3.0930    1.1005    0.6925 N.2       1 <0>        -0.0837
      4 C1         -3.2641   -0.1983    0.3822 C.3       1 <0>        -0.0092
      5 C2         -1.8018   -0.1002   -0.0833 C.ar      1 <0>        -0.0001
      6 C3          0.8118    0.0365   -0.9118 C.ar      1 <0>        -0.0266
      7 C4         -1.2436    1.1381   -0.2804 C.ar      1 <0>         0.1237
      8 C5          0.0844    1.2079   -0.7014 C.ar      1 <0>        -0.0048
      9 C6          0.2114   -1.2047   -0.7010 C.ar      1 <0>        -0.0460
     10 C7         -1.1166   -1.2745   -0.2802 C.ar      1 <0>        -0.0514
     11 C8         -3.6624   -1.6823    0.5343 C.3       1 <0>        -0.0559
     12 C9         -4.1868    0.4710   -0.6594 C.3       1 <0>        -0.0559
     13 C10        -3.5353    0.4884    1.7399 C.3       1 <0>        -0.0559
     14 C11         2.2359    0.1095   -1.3641 C.3       1 <0>         0.0759
     15 C12         3.1759    0.1579   -0.2051 C.2       1 <0>         0.2854
     16 C13         0.7223    2.5418   -0.9265 C.3       1 <0>        -0.0360
     17 C14         0.9673   -2.4742   -0.9217 C.3       1 <0>        -0.0394
     18 C15         4.9020   -0.5126    1.1162 C.3       1 <0>         0.1194
     19 C16         4.2034    0.7574    1.6394 C.3       1 <0>         0.1671
     20 H1         -1.5208   -2.2667   -0.1356 H         1 <0>         0.0624
     21 H2         -4.7099   -1.7561    0.8564 H         1 <0>         0.0238
     22 H3         -3.6132   -2.2339   -0.4125 H         1 <0>         0.0238
     23 H4         -3.0809   -2.2019    1.3056 H         1 <0>         0.0238
     24 H5         -3.9903    0.0836   -1.6665 H         1 <0>         0.0238
     25 H6         -5.2393    0.2611   -0.4323 H         1 <0>         0.0238
     26 H7         -4.0953    1.5594   -0.7002 H         1 <0>         0.0238
     27 H8         -4.5649    0.3120    2.0732 H         1 <0>         0.0238
     28 H9         -2.8642    0.0956    2.5129 H         1 <0>         0.0238
     29 H10        -3.3956    1.5725    1.7109 H         1 <0>         0.0238
     30 H11         2.4915   -0.7470   -1.9985 H         1 <0>         0.0436
     31 H12         2.4271    0.9599   -2.0263 H         1 <0>         0.0436
     32 H13         0.3493    2.9754   -1.8609 H         1 <0>         0.0279
     33 H14         0.4826    3.2229   -0.1012 H         1 <0>         0.0279
     34 H15         1.8103    2.5558   -0.9742 H         1 <0>         0.0279
     35 H16         1.2257   -2.5943   -1.9786 H         1 <0>         0.0278
     36 H17         1.8734   -2.5060   -0.3099 H         1 <0>         0.0278
     37 H18         0.3743   -3.3519   -0.6400 H         1 <0>         0.0278
     38 H19         5.9533   -0.3227    0.8810 H         1 <0>         0.0765
     39 H20         4.8325   -1.3329    1.8365 H         1 <0>         0.0765
     40 H21         4.3168   -1.5677   -0.6847 H         1 <0>         0.2912
     41 H22         3.7885    0.5913    2.6394 H         1 <0>         0.0829
     42 H23         4.9061    1.5958    1.6938 H         1 <0>         0.0829
     43 H24        -1.5369    3.0371   -0.5166 H         1 <0>         0.2922
@<TRIPOS>BOND
     1    1    7 1
     2    1   43 1
     3    2   15 1
     4    2   18 1
     5    2   40 1
     6    3   15 2
     7    3   19 1
     8    4    5 1
     9    4   11 1
    10    4   12 1
    11    4   13 1
    12    5    7 ar
    13    5   10 ar
    14    6    8 ar
    15    6    9 ar
    16    6   14 1
    17    7    8 ar
    18    8   16 1
    19    9   10 ar
    20    9   17 1
    21   10   20 1
    22   11   21 1
    23   11   22 1
    24   11   23 1
    25   12   24 1
    26   12   25 1
    27   12   26 1
    28   13   27 1
    29   13   28 1
    30   13   29 1
    31   14   15 1
    32   14   30 1
    33   14   31 1
    34   16   32 1
    35   16   33 1
    36   16   34 1
    37   17   35 1
    38   17   36 1
    39   17   37 1
    40   18   19 1
    41   18   38 1
    42   18   39 1
    43   19   41 1
    44   19   42 1
