@<TRIPOS>MOLECULE
DB00892
   50    50     0     0     0
SMALL
USER_CHARGES

@<TRIPOS>ATOM
      1 O1         -1.1327    1.5827   -0.2156 O.3       1 <0>        -0.4599
      2 O2          3.5262    0.5118    1.0097 O.3       1 <0>        -0.4901
      3 O3         -1.2761    3.8650    0.0478 O.2       1 <0>        -0.2450
      4 N1         -4.3956   -0.1138   -0.4971 N.3       1 <0>        -0.2996
      5 N2          5.0524    2.6949    0.0903 N.pl3     1 <0>        -0.3551
      6 C1         -2.9483    0.0311   -0.4533 C.3       1 <0>         0.0332
      7 C2         -4.7712   -1.3732   -1.1445 C.3       1 <0>        -0.0038
      8 C3         -4.9638   -0.0501    0.8518 C.3       1 <0>        -0.0038
      9 C4         -2.5602    1.4897   -0.2703 C.3       1 <0>         0.1054
     10 C5         -4.2618   -2.5685   -0.3569 C.3       1 <0>        -0.0524
     11 C6         -6.4805   -0.1313    0.8130 C.3       1 <0>        -0.0524
     12 C7          4.4831   -1.6194    0.4854 C.3       1 <0>        -0.0189
     13 C8          3.2688   -0.7135    0.3380 C.3       1 <0>         0.0897
     14 C9          4.2812   -2.9531   -0.2286 C.3       1 <0>        -0.0528
     15 C10         2.9019    1.6292    0.5188 C.ar      1 <0>         0.1418
     16 C11         0.8531    2.7936   -0.0141 C.ar      1 <0>         0.0626
     17 C12        -0.6002    2.8324   -0.0528 C.2       1 <0>         0.3393
     18 C13         1.5080    1.6664    0.4821 C.ar      1 <0>        -0.0041
     19 C14         3.6410    2.7194    0.0597 C.ar      1 <0>         0.0669
     20 C15         5.5124   -3.8376   -0.1155 C.3       1 <0>        -0.0652
     21 C16         1.5923    3.8839   -0.4733 C.ar      1 <0>        -0.0458
     22 C17         2.9861    3.8468   -0.4362 C.ar      1 <0>        -0.0367
     23 H1         -2.4896   -0.3044   -1.3936 H         1 <0>         0.0460
     24 H2         -2.4785   -0.5687    0.3372 H         1 <0>         0.0460
     25 H3         -5.8516   -1.4474   -1.3063 H         1 <0>         0.0424
     26 H4         -4.3436   -1.4011   -2.1552 H         1 <0>         0.0424
     27 H5         -4.5545   -0.7931    1.5454 H         1 <0>         0.0424
     28 H6         -4.7313    0.9243    1.2960 H         1 <0>         0.0424
     29 H7         -2.9257    2.0895   -1.1127 H         1 <0>         0.0710
     30 H8         -2.9590    1.9033    0.6612 H         1 <0>         0.0710
     31 H9         -4.4909   -3.4799   -0.9228 H         1 <0>         0.0242
     32 H10        -4.7516   -2.6901    0.6131 H         1 <0>         0.0242
     33 H11        -3.1780   -2.5696   -0.2126 H         1 <0>         0.0242
     34 H12        -6.8874    0.1540    1.7898 H         1 <0>         0.0242
     35 H13        -6.8429   -1.1427    0.6066 H         1 <0>         0.0242
     36 H14        -6.9043    0.5555    0.0722 H         1 <0>         0.0242
     37 H15         4.6882   -1.7850    1.5505 H         1 <0>         0.0298
     38 H16         5.3670   -1.1060    0.0864 H         1 <0>         0.0298
     39 H17         2.3887   -1.1873    0.7877 H         1 <0>         0.0696
     40 H18         3.0676   -0.5402   -0.7272 H         1 <0>         0.0696
     41 H19         4.0621   -2.7793   -1.2886 H         1 <0>         0.0264
     42 H20         3.4189   -3.4775    0.1993 H         1 <0>         0.0264
     43 H21         0.9441    0.8186    0.8636 H         1 <0>         0.0663
     44 H22         5.7430   -4.0566    0.9321 H         1 <0>         0.0230
     45 H23         5.3454   -4.7878   -0.6323 H         1 <0>         0.0230
     46 H24         6.3853   -3.3546   -0.5661 H         1 <0>         0.0230
     47 H25         1.0978    4.7688   -0.8656 H         1 <0>         0.0626
     48 H26         3.5504    4.7027   -0.7978 H         1 <0>         0.0637
     49 H27         5.5330    1.8791    0.4459 H         1 <0>         0.1424
     50 H28         5.5815    3.4890   -0.2443 H         1 <0>         0.1424
@<TRIPOS>BOND
     1    1    9 1
     2    1   17 1
     3    2   13 1
     4    2   15 1
     5    3   17 2
     6    4    6 1
     7    4    7 1
     8    4    8 1
     9    5   19 1
    10    5   49 1
    11    5   50 1
    12    6    9 1
    13    6   23 1
    14    6   24 1
    15    7   10 1
    16    7   25 1
    17    7   26 1
    18    8   11 1
    19    8   27 1
    20    8   28 1
    21    9   29 1
    22    9   30 1
    23   10   31 1
    24   10   32 1
    25   10   33 1
    26   11   34 1
    27   11   35 1
    28   11   36 1
    29   12   13 1
    30   12   14 1
    31   12   37 1
    32   12   38 1
    33   13   39 1
    34   13   40 1
    35   14   20 1
    36   14   41 1
    37   14   42 1
    38   15   18 ar
    39   15   19 ar
    40   16   17 1
    41   16   18 ar
    42   16   21 ar
    43   18   43 1
    44   19   22 ar
    45   20   44 1
    46   20   45 1
    47   20   46 1
    48   21   22 ar
    49   21   47 1
    50   22   48 1
