@<TRIPOS>MOLECULE
DB00902
   41    44     0     0     0
SMALL
USER_CHARGES

@<TRIPOS>ATOM
      1 S1         -3.0726    0.0125    1.6693 S.3       1 <0>        -0.0857
      2 N1          3.0878   -0.1418    1.0478 N.3       1 <0>        -0.3050
      3 N2         -0.9655   -0.0343   -0.6160 N.pl3     1 <0>        -0.2980
      4 C1          1.4442   -0.5680   -0.5212 C.3       1 <0>        -0.0110
      5 C2          2.7872   -0.5830   -1.2553 C.3       1 <0>        -0.0348
      6 C3          1.7185    0.2627    0.7272 C.3       1 <0>         0.0029
      7 C4          3.8097   -0.1062   -0.2259 C.3       1 <0>        -0.0011
      8 C5          0.3001   -0.0251   -1.3610 C.3       1 <0>         0.0214
      9 C6          3.6985    0.7090    2.0581 C.3       1 <0>        -0.0128
     10 C7         -1.5979    1.2143   -0.3880 C.ar      1 <0>         0.0479
     11 C8         -1.4923   -1.2957   -0.2394 C.ar      1 <0>         0.0479
     12 C9         -2.5876    1.3563    0.6047 C.ar      1 <0>         0.0341
     13 C10        -2.4713   -1.4021    0.7683 C.ar      1 <0>         0.0341
     14 C11        -1.2966    2.3573   -1.1605 C.ar      1 <0>        -0.0393
     15 C12        -1.0929   -2.4923   -0.8737 C.ar      1 <0>        -0.0393
     16 C13        -3.2172    2.5948    0.8215 C.ar      1 <0>        -0.0462
     17 C14        -2.9957   -2.6550    1.1330 C.ar      1 <0>        -0.0462
     18 C15        -1.9288    3.5848   -0.9441 C.ar      1 <0>        -0.0599
     19 C16        -1.6209   -3.7344   -0.5108 C.ar      1 <0>        -0.0599
     20 C17        -2.8879    3.7046    0.0501 C.ar      1 <0>        -0.0606
     21 C18        -2.5709   -3.8160    0.4958 C.ar      1 <0>        -0.0606
     22 H1          1.2499   -1.5981   -0.1994 H         1 <0>         0.0329
     23 H2          2.7944    0.0761   -2.1307 H         1 <0>         0.0281
     24 H3          3.0161   -1.5976   -1.6009 H         1 <0>         0.0281
     25 H4          1.6526    1.3380    0.5158 H         1 <0>         0.0430
     26 H5          1.0258    0.0181    1.5392 H         1 <0>         0.0430
     27 H6          4.6927   -0.7527   -0.2069 H         1 <0>         0.0426
     28 H7          4.1326    0.9109   -0.4826 H         1 <0>         0.0426
     29 H8          0.1972   -0.5765   -2.3039 H         1 <0>         0.0471
     30 H9          0.6304    0.9655   -1.6769 H         1 <0>         0.0471
     31 H10         3.7371    1.7609    1.7526 H         1 <0>         0.0391
     32 H11         4.7199    0.3755    2.2711 H         1 <0>         0.0391
     33 H12         3.1393    0.6458    2.9980 H         1 <0>         0.0391
     34 H13        -0.6118    2.3388   -2.0016 H         1 <0>         0.0636
     35 H14        -0.3715   -2.4995   -1.6859 H         1 <0>         0.0636
     36 H15        -3.9739    2.7080    1.5954 H         1 <0>         0.0629
     37 H16        -3.7432   -2.7392    1.9192 H         1 <0>         0.0629
     38 H17        -1.6790    4.4405   -1.5648 H         1 <0>         0.0618
     39 H18        -1.2898   -4.6340   -1.0213 H         1 <0>         0.0618
     40 H19        -3.3832    4.6554    0.2215 H         1 <0>         0.0618
     41 H20        -2.9837   -4.7785    0.7821 H         1 <0>         0.0618
@<TRIPOS>BOND
     1    1   12 1
     2    1   13 1
     3    2    6 1
     4    2    7 1
     5    2    9 1
     6    3    8 1
     7    3   10 1
     8    3   11 1
     9    4    5 1
    10    4    6 1
    11    4    8 1
    12    4   22 1
    13    5    7 1
    14    5   23 1
    15    5   24 1
    16    6   25 1
    17    6   26 1
    18    7   27 1
    19    7   28 1
    20    8   29 1
    21    8   30 1
    22    9   31 1
    23    9   32 1
    24    9   33 1
    25   10   12 ar
    26   10   14 ar
    27   11   13 ar
    28   11   15 ar
    29   12   16 ar
    30   13   17 ar
    31   14   18 ar
    32   14   34 1
    33   15   19 ar
    34   15   35 1
    35   16   20 ar
    36   16   36 1
    37   17   21 ar
    38   17   37 1
    39   18   20 ar
    40   18   38 1
    41   19   21 ar
    42   19   39 1
    43   20   40 1
    44   21   41 1
