@<TRIPOS>MOLECULE
DB00978
   44    46     0     0     0
SMALL
USER_CHARGES

@<TRIPOS>ATOM
      1 F1          0.0237   -1.6272    0.5116 F         1 <0>        -0.2013
      2 F2         -1.3980    2.6415   -0.8950 F         1 <0>        -0.2034
      3 O1          3.6056    3.0289   -0.6515 O.2       1 <0>        -0.2863
      4 O2          5.9980    2.5868    0.3291 O.3       1 <0>        -0.4770
      5 O3          6.7542    0.4859   -0.1655 O.2       1 <0>        -0.2449
      6 N1         -2.0080    0.0469   -0.1455 N.pl3     1 <0>        -0.3227
      7 N2         -4.7528   -0.7204   -0.2530 N.3       1 <0>        -0.3105
      8 N3          2.7833   -0.8079    0.4600 N.pl3     1 <0>        -0.3436
      9 C1         -4.3166    0.3175    0.6877 C.3       1 <0>         0.0205
     10 C2         -3.0577    1.0275    0.1676 C.3       1 <0>         0.0275
     11 C3         -2.4220   -1.0805   -0.9868 C.3       1 <0>         0.0249
     12 C4         -3.6987   -1.7153   -0.4383 C.3       1 <0>         0.0119
     13 C5         -0.6823    0.4930   -0.1871 C.ar      1 <0>         0.1032
     14 C6         -5.4530    1.3181    0.8906 C.3       1 <0>        -0.0482
     15 C7          0.3577   -0.3778    0.1538 C.ar      1 <0>         0.1711
     16 C8          1.7009    0.0384    0.1237 C.ar      1 <0>         0.0904
     17 C9         -0.4057    1.8019   -0.5670 C.ar      1 <0>         0.1479
     18 C10         1.9541    1.3741   -0.2657 C.ar      1 <0>         0.0516
     19 C11         0.9119    2.2467   -0.6075 C.ar      1 <0>        -0.0116
     20 C12         2.5302   -2.1900    0.8626 C.3       1 <0>         0.0206
     21 C13         3.3522    1.8780   -0.3178 C.2       1 <0>         0.2035
     22 C14         4.0739   -0.3133    0.4052 C.2       1 <0>         0.0229
     23 C15         4.4287    0.9274    0.0526 C.2       1 <0>         0.1220
     24 C16         2.5316   -3.1243   -0.3296 C.3       1 <0>        -0.0471
     25 C17         5.8503    1.2736    0.0526 C.2       1 <0>         0.3420
     26 H1         -4.0987   -0.1496    1.6572 H         1 <0>         0.0473
     27 H2         -3.3202    1.5946   -0.7349 H         1 <0>         0.0479
     28 H3         -2.7201    1.7294    0.9411 H         1 <0>         0.0479
     29 H4         -1.6506   -1.8553   -1.0479 H         1 <0>         0.0476
     30 H5         -2.5908   -0.7196   -2.0098 H         1 <0>         0.0476
     31 H6         -4.0517   -2.4857   -1.1323 H         1 <0>         0.0439
     32 H7         -3.4942   -2.2196    0.5143 H         1 <0>         0.0439
     33 H8         -4.9714   -0.2913   -1.1524 H         1 <0>         0.1223
     34 H9         -6.3477    0.8203    1.2809 H         1 <0>         0.0245
     35 H10        -5.1623    2.0909    1.6103 H         1 <0>         0.0245
     36 H11        -5.7254    1.8170   -0.0464 H         1 <0>         0.0245
     37 H12         1.1084    3.2726   -0.9064 H         1 <0>         0.0654
     38 H13         3.3489   -2.5172    1.5202 H         1 <0>         0.0489
     39 H14         1.6552   -2.3141    1.5054 H         1 <0>         0.0489
     40 H15         4.8197   -1.0512    0.6854 H         1 <0>         0.0818
     41 H16         1.7281   -2.8805   -1.0316 H         1 <0>         0.0247
     42 H17         3.4789   -3.0692   -0.8766 H         1 <0>         0.0247
     43 H18         2.3916   -4.1591   -0.0014 H         1 <0>         0.0247
     44 H19         6.9408    2.8578    0.3379 H         1 <0>         0.2954
@<TRIPOS>BOND
     1    1   15 1
     2    2   17 1
     3    3   21 2
     4    4   25 1
     5    4   44 1
     6    5   25 2
     7    6   10 1
     8    6   11 1
     9    6   13 1
    10    7    9 1
    11    7   12 1
    12    7   33 1
    13    8   16 1
    14    8   20 1
    15    8   22 2
    16    9   10 1
    17    9   14 1
    18    9   26 1
    19   10   27 1
    20   10   28 1
    21   11   12 1
    22   11   29 1
    23   11   30 1
    24   12   31 1
    25   12   32 1
    26   13   15 ar
    27   13   17 ar
    28   14   34 1
    29   14   35 1
    30   14   36 1
    31   15   16 ar
    32   16   18 ar
    33   17   19 ar
    34   18   19 ar
    35   18   21 1
    36   19   37 1
    37   20   24 1
    38   20   38 1
    39   20   39 1
    40   21   23 1
    41   22   23 1
    42   22   40 1
    43   23   25 1
    44   24   41 1
    45   24   42 1
    46   24   43 1
