@<TRIPOS>MOLECULE
DB00312
   34    34     0     0     0
SMALL
USER_CHARGES

@<TRIPOS>ATOM
      1 O1         -2.4367   -0.6471   -1.8232 O.2       1 <0>        -0.2742
      2 O2         -0.6079    0.2601    2.4057 O.2       1 <0>        -0.2742
      3 O3         -2.9088    3.4922    0.1001 O.2       1 <0>        -0.2520
      4 N1         -2.5864    1.4490   -0.9033 N.am      1 <0>        -0.2390
      5 N2         -1.6724    1.9025    1.2089 N.am      1 <0>        -0.2390
      6 C1         -0.9724   -0.1390    0.0417 C.3       1 <0>         0.1257
      7 C2          0.3629    0.2475   -0.6190 C.3       1 <0>        -0.0215
      8 C3          1.5719   -0.0119    0.2989 C.3       1 <0>        -0.0493
      9 C4         -0.9647   -1.6411    0.3606 C.3       1 <0>        -0.0332
     10 C5         -2.0745    0.1618   -0.9693 C.2       1 <0>         0.2357
     11 C6         -1.0760    0.6571    1.3388 C.2       1 <0>         0.2357
     12 C7          0.5344   -0.5269   -1.9282 C.3       1 <0>        -0.0610
     13 C8          2.9057    0.4259   -0.3112 C.3       1 <0>        -0.0556
     14 C9         -2.3007   -2.0836    0.9136 C.3       1 <0>        -0.0639
     15 C10        -2.4093    2.3661    0.1258 C.2       1 <0>         0.3122
     16 C11         4.0560    0.2143    0.6618 C.3       1 <0>        -0.0653
     17 H1          0.3515    1.3182   -0.8672 H         1 <0>         0.0313
     18 H2          1.6559   -1.0743    0.5512 H         1 <0>         0.0268
     19 H3          1.4655    0.5373    1.2389 H         1 <0>         0.0268
     20 H4         -0.2043   -1.9019    1.1043 H         1 <0>         0.0277
     21 H5         -0.7736   -2.2607   -0.5206 H         1 <0>         0.0277
     22 H6          1.3935   -0.1309   -2.4824 H         1 <0>         0.0233
     23 H7         -0.2920   -0.4159   -2.6308 H         1 <0>         0.0233
     24 H8          0.7383   -1.5911   -1.7793 H         1 <0>         0.0233
     25 H9          2.8596    1.4840   -0.5926 H         1 <0>         0.0263
     26 H10         3.1284   -0.1476   -1.2163 H         1 <0>         0.0263
     27 H11        -2.5818   -1.5320    1.8157 H         1 <0>         0.0230
     28 H12        -3.1161   -1.9911    0.1911 H         1 <0>         0.0230
     29 H13        -2.2482   -3.1426    1.1915 H         1 <0>         0.0230
     30 H14        -3.2218    1.7237   -1.6475 H         1 <0>         0.1591
     31 H15        -1.6339    2.5113    2.0216 H         1 <0>         0.1591
     32 H16         3.9099    0.7984    1.5760 H         1 <0>         0.0230
     33 H17         4.1477   -0.8409    0.9384 H         1 <0>         0.0230
     34 H18         5.0001    0.5292    0.2062 H         1 <0>         0.0230
@<TRIPOS>BOND
     1    1   10 2
     2    2   11 2
     3    3   15 2
     4    4   10 am
     5    4   15 am
     6    4   30 1
     7    5   11 am
     8    5   15 am
     9    5   31 1
    10    6    7 1
    11    6    9 1
    12    6   10 1
    13    6   11 1
    14    7    8 1
    15    7   12 1
    16    7   17 1
    17    8   13 1
    18    8   18 1
    19    8   19 1
    20    9   14 1
    21    9   20 1
    22    9   21 1
    23   12   22 1
    24   12   23 1
    25   12   24 1
    26   13   16 1
    27   13   25 1
    28   13   26 1
    29   14   27 1
    30   14   28 1
    31   14   29 1
    32   16   32 1
    33   16   33 1
    34   16   34 1
