@<TRIPOS>MOLECULE
DB00835
   38    39     0     0     0
SMALL
USER_CHARGES

@<TRIPOS>ATOM
      1 Br1        -6.3741    1.3992    0.3599 Br        1 <0>        -0.0503
      2 N1          2.4938    1.0747    0.2539 N.3       1 <0>        -0.3083
      3 N2         -0.5410   -1.9381   -1.1064 N.ar      1 <0>        -0.2593
      4 C1         -0.3338    0.1681    0.0707 C.3       1 <0>         0.0275
      5 C2          0.4017    0.9823   -1.0259 C.3       1 <0>        -0.0279
      6 C3          1.9123    0.7219   -1.0371 C.3       1 <0>        -0.0008
      7 C4         -1.8276    0.4711    0.1418 C.ar      1 <0>        -0.0384
      8 C5         -0.0784   -1.3318   -0.0065 C.ar      1 <0>         0.0487
      9 C6         -2.4700    0.3581    1.3558 C.ar      1 <0>        -0.0569
     10 C7         -2.4835    0.8486   -1.0097 C.ar      1 <0>        -0.0569
     11 C8          0.5885   -1.9297    1.0311 C.ar      1 <0>        -0.0398
     12 C9          2.3044    2.4990    0.5316 C.3       1 <0>        -0.0130
     13 C10         3.9171    0.7350    0.2873 C.3       1 <0>        -0.0130
     14 C11        -3.8353    0.6362    1.4212 C.ar      1 <0>        -0.0475
     15 C12        -3.8488    1.1266   -0.9443 C.ar      1 <0>        -0.0475
     16 C13         0.8055   -3.2993    0.9299 C.ar      1 <0>        -0.0586
     17 C14        -4.5246    1.0202    0.2711 C.ar      1 <0>         0.0179
     18 C15        -0.3115   -3.2689   -1.1697 C.ar      1 <0>         0.0279
     19 C16         0.3502   -3.9893   -0.1882 C.ar      1 <0>        -0.0436
     20 H1          0.0669    0.5323    1.0280 H         1 <0>         0.0413
     21 H2          0.0540    0.6742   -2.0206 H         1 <0>         0.0287
     22 H3          0.1690    2.0509   -0.9508 H         1 <0>         0.0287
     23 H4          2.3697    1.3024   -1.8494 H         1 <0>         0.0427
     24 H5          2.1037   -0.3329   -1.2676 H         1 <0>         0.0427
     25 H6         -1.9418    0.0595    2.2562 H         1 <0>         0.0621
     26 H7         -2.0049    0.9246   -1.9782 H         1 <0>         0.0621
     27 H8          0.9398   -1.3840    1.8989 H         1 <0>         0.0636
     28 H9          1.2588    2.7460    0.7380 H         1 <0>         0.0391
     29 H10         2.6685    3.1359   -0.2829 H         1 <0>         0.0391
     30 H11         2.8465    2.7828    1.4420 H         1 <0>         0.0391
     31 H12         4.0606   -0.3377    0.1155 H         1 <0>         0.0391
     32 H13         4.3423    0.9520    1.2735 H         1 <0>         0.0391
     33 H14         4.4915    1.2859   -0.4664 H         1 <0>         0.0391
     34 H15        -4.3470    0.5487    2.3762 H         1 <0>         0.0629
     35 H16        -4.3727    1.4207   -1.8503 H         1 <0>         0.0629
     36 H17         1.3287   -3.8283    1.7208 H         1 <0>         0.0619
     37 H18        -0.6865   -3.7600   -2.0615 H         1 <0>         0.0829
     38 H19         0.5082   -5.0569   -0.2882 H         1 <0>         0.0633
@<TRIPOS>BOND
     1    1   17 1
     2    2    6 1
     3    2   12 1
     4    2   13 1
     5    3    8 ar
     6    3   18 ar
     7    4    5 1
     8    4    7 1
     9    4    8 1
    10    4   20 1
    11    5    6 1
    12    5   21 1
    13    5   22 1
    14    6   23 1
    15    6   24 1
    16    7    9 ar
    17    7   10 ar
    18    8   11 ar
    19    9   14 ar
    20    9   25 1
    21   10   15 ar
    22   10   26 1
    23   11   16 ar
    24   11   27 1
    25   12   28 1
    26   12   29 1
    27   12   30 1
    28   13   31 1
    29   13   32 1
    30   13   33 1
    31   14   17 ar
    32   14   34 1
    33   15   17 ar
    34   15   35 1
    35   16   19 ar
    36   16   36 1
    37   18   19 ar
    38   18   37 1
    39   19   38 1
