@<TRIPOS>MOLECULE
DB00169
   72    74     0     0     0
SMALL
USER_CHARGES

@<TRIPOS>ATOM
      1 O1          7.1895   -0.7807    2.2943 O.3       1 <0>        -0.3915
      2 C1         -0.5850    1.3087   -0.3099 C.3       1 <0>        -0.0225
      3 C2         -1.8408    0.4489   -0.6043 C.3       1 <0>        -0.0325
      4 C3          0.4009    0.1872    0.1018 C.3       1 <0>        -0.0139
      5 C4         -1.2876   -0.7815   -1.3533 C.3       1 <0>        -0.0489
      6 C5          0.1983   -0.8867   -0.9717 C.3       1 <0>        -0.0457
      7 C6         -0.7668    2.3039    0.8607 C.3       1 <0>        -0.0465
      8 C7         -2.9747    1.1366   -1.3512 C.3       1 <0>        -0.0405
      9 C8          1.7735    0.7283    0.4056 C.2       1 <0>        -0.0659
     10 C9         -0.1268    2.0873   -1.5706 C.3       1 <0>        -0.0588
     11 C10         0.4275    2.3366    1.8339 C.3       1 <0>        -0.0488
     12 C11         1.7820    2.0301    1.1813 C.3       1 <0>        -0.0312
     13 C12        -4.1932    0.2148   -1.5679 C.3       1 <0>        -0.0502
     14 C13        -3.4206    2.3914   -0.5897 C.3       1 <0>        -0.0621
     15 C14         2.9187    0.1306    0.0455 C.2       1 <0>        -0.0620
     16 C15        -4.8181   -0.3834   -0.3005 C.3       1 <0>        -0.0526
     17 C16        -5.9746   -1.3470   -0.5858 C.3       1 <0>        -0.0507
     18 C17         4.2210    0.6637    0.3588 C.2       1 <0>        -0.0583
     19 C18        -6.6476   -1.8916    0.6893 C.3       1 <0>        -0.0467
     20 C19         5.3678    0.0657   -0.0014 C.2       1 <0>        -0.0423
     21 C20         6.7172    0.6314    0.3823 C.3       1 <0>        -0.0013
     22 C21        -7.1792   -0.7789    1.5940 C.3       1 <0>        -0.0627
     23 C22        -5.6542   -2.7573    1.4692 C.3       1 <0>        -0.0627
     24 C23         5.4067   -1.1876   -0.7482 C.2       1 <0>        -0.0511
     25 C24         7.6477   -0.4237    0.9917 C.3       1 <0>         0.0595
     26 C25         6.3258   -2.2414   -0.1814 C.3       1 <0>        -0.0256
     27 C26         7.7185   -1.6814    0.1233 C.3       1 <0>        -0.0226
     28 C27         4.7069   -1.3883   -1.8760 C.2       1 <0>        -0.0952
     29 H1         -2.2130    0.0957    0.3671 H         1 <0>         0.0309
     30 H2          0.0440   -0.2587    1.0450 H         1 <0>         0.0351
     31 H3         -1.8297   -1.6882   -1.0626 H         1 <0>         0.0268
     32 H4         -1.3798   -0.6792   -2.4407 H         1 <0>         0.0268
     33 H5          0.4421   -1.8860   -0.5953 H         1 <0>         0.0271
     34 H6          0.8227   -0.7071   -1.8546 H         1 <0>         0.0271
     35 H7         -1.6500    2.0600    1.4609 H         1 <0>         0.0271
     36 H8         -0.9133    3.3233    0.4857 H         1 <0>         0.0271
     37 H9         -2.6397    1.4483   -2.3482 H         1 <0>         0.0301
     38 H10         0.8370    2.5818   -1.4189 H         1 <0>         0.0235
     39 H11        -0.0163    1.4371   -2.4442 H         1 <0>         0.0235
     40 H12        -0.8339    2.8753   -1.8461 H         1 <0>         0.0235
     41 H13         0.2483    1.6018    2.6307 H         1 <0>         0.0268
     42 H14         0.4665    3.3139    2.3298 H         1 <0>         0.0268
     43 H15         2.0518    2.8575    0.5146 H         1 <0>         0.0310
     44 H16         2.5152    2.0002    1.9955 H         1 <0>         0.0310
     45 H17        -3.9005   -0.6075   -2.2330 H         1 <0>         0.0268
     46 H18        -4.9677    0.7702   -2.1133 H         1 <0>         0.0268
     47 H19        -2.7091    3.2124   -0.6833 H         1 <0>         0.0233
     48 H20        -4.3560    2.7753   -1.0154 H         1 <0>         0.0233
     49 H21        -3.6146    2.1940    0.4685 H         1 <0>         0.0233
     50 H22         2.8243   -0.8328   -0.4362 H         1 <0>         0.0617
     51 H23        -5.1666    0.4391    0.3305 H         1 <0>         0.0265
     52 H24        -4.0511   -0.9234    0.2592 H         1 <0>         0.0265
     53 H25        -5.6135   -2.1829   -1.1975 H         1 <0>         0.0268
     54 H26        -6.7314   -0.8260   -1.1859 H         1 <0>         0.0268
     55 H27         4.2939    1.5983    0.9047 H         1 <0>         0.0620
     56 H28        -7.4901   -2.5225    0.3800 H         1 <0>         0.0295
     57 H29         6.5977    1.4567    1.0955 H         1 <0>         0.0338
     58 H30         7.1855    1.0473   -0.5192 H         1 <0>         0.0338
     59 H31        -6.3768   -0.2043    2.0670 H         1 <0>         0.0232
     60 H32        -7.7871   -1.2063    2.3993 H         1 <0>         0.0232
     61 H33        -7.8145   -0.0880    1.0301 H         1 <0>         0.0232
     62 H34        -4.8459   -2.1692    1.9149 H         1 <0>         0.0232
     63 H35        -6.1678   -3.2726    2.2887 H         1 <0>         0.0232
     64 H36        -5.2099   -3.5240    0.8260 H         1 <0>         0.0232
     65 H37         8.6519   -0.0034    1.1115 H         1 <0>         0.0596
     66 H38         5.8780   -2.6519    0.7325 H         1 <0>         0.0314
     67 H39         6.4321   -3.0849   -0.8748 H         1 <0>         0.0314
     68 H40         8.3038   -2.4556    0.6333 H         1 <0>         0.0293
     69 H41         8.2306   -1.4460   -0.8181 H         1 <0>         0.0293
     70 H42         4.7690   -2.3338   -2.4064 H         1 <0>         0.0538
     71 H43         4.0933   -0.6199   -2.3350 H         1 <0>         0.0538
     72 H44         6.2579   -1.0495    2.2381 H         1 <0>         0.2098
@<TRIPOS>BOND
     1    1   25 1
     2    1   72 1
     3    2    3 1
     4    2    4 1
     5    2    7 1
     6    2   10 1
     7    3    5 1
     8    3    8 1
     9    3   29 1
    10    4    6 1
    11    4    9 1
    12    4   30 1
    13    5    6 1
    14    5   31 1
    15    5   32 1
    16    6   33 1
    17    6   34 1
    18    7   11 1
    19    7   35 1
    20    7   36 1
    21    8   13 1
    22    8   14 1
    23    8   37 1
    24    9   12 1
    25    9   15 2
    26   10   38 1
    27   10   39 1
    28   10   40 1
    29   11   12 1
    30   11   41 1
    31   11   42 1
    32   12   43 1
    33   12   44 1
    34   13   16 1
    35   13   45 1
    36   13   46 1
    37   14   47 1
    38   14   48 1
    39   14   49 1
    40   15   18 1
    41   15   50 1
    42   16   17 1
    43   16   51 1
    44   16   52 1
    45   17   19 1
    46   17   53 1
    47   17   54 1
    48   18   20 2
    49   18   55 1
    50   19   22 1
    51   19   23 1
    52   19   56 1
    53   20   21 1
    54   20   24 1
    55   21   25 1
    56   21   57 1
    57   21   58 1
    58   22   59 1
    59   22   60 1
    60   22   61 1
    61   23   62 1
    62   23   63 1
    63   23   64 1
    64   24   26 1
    65   24   28 2
    66   25   27 1
    67   25   65 1
    68   26   27 1
    69   26   66 1
    70   26   67 1
    71   27   68 1
    72   27   69 1
    73   28   70 1
    74   28   71 1
