@<TRIPOS>MOLECULE
DB00247
   53    56     0     0     0
SMALL
USER_CHARGES

@<TRIPOS>ATOM
      1 O1          2.1497    0.8946    1.3201 O.2       1 <0>        -0.2751
      2 O2          6.0193   -1.1120   -1.2676 O.3       1 <0>        -0.3932
      3 N1         -0.5102   -2.3386   -0.0947 N.3       1 <0>        -0.2971
      4 N2         -5.8111    0.4682   -0.2274 N.pl3     1 <0>        -0.3494
      5 N3          3.5172   -0.2557   -0.1718 N.am      1 <0>        -0.3098
      6 C1         -1.6061   -1.3991    0.2754 C.3       1 <0>         0.0397
      7 C2         -1.2406    0.0944    0.0222 C.2       1 <0>        -0.0253
      8 C3         -2.9342   -1.8391   -0.4457 C.3       1 <0>        -0.0059
      9 C4          1.1419   -0.5219   -0.3154 C.3       1 <0>         0.0669
     10 C5          0.7905   -1.8412    0.3766 C.3       1 <0>         0.0138
     11 C6         -3.9818   -0.7909   -0.3208 C.2       1 <0>        -0.0198
     12 C7         -2.3318    1.0911    0.1025 C.2       1 <0>        -0.0112
     13 C8         -3.6094    0.5459   -0.0709 C.2       1 <0>         0.0105
     14 C9          0.0158    0.4648   -0.2813 C.2       1 <0>        -0.0658
     15 C10        -4.7529    1.3257   -0.0178 C.2       1 <0>         0.0497
     16 C11        -5.3533   -0.8182   -0.4148 C.2       1 <0>         0.0086
     17 C12        -0.7334   -3.6884    0.4338 C.3       1 <0>        -0.0121
     18 C13         2.3045    0.1177    0.3814 C.2       1 <0>         0.2214
     19 C14        -2.2505    2.4695    0.3344 C.2       1 <0>        -0.0536
     20 C15        -4.6893    2.7010    0.2112 C.2       1 <0>        -0.0376
     21 C16        -3.4112    3.2546    0.3859 C.2       1 <0>        -0.0592
     22 C17         4.7889    0.2395    0.3035 C.3       1 <0>         0.0459
     23 C18        -7.2068    0.8489   -0.2560 C.3       1 <0>         0.0119
     24 C19         5.1801    1.5324   -0.4241 C.3       1 <0>        -0.0352
     25 C20         5.8641   -0.8317    0.1191 C.3       1 <0>         0.0625
     26 C21         6.4786    2.1329    0.0995 C.3       1 <0>        -0.0635
     27 H1         -1.7793   -1.4719    1.3611 H         1 <0>         0.0515
     28 H2         -3.3136   -2.7721   -0.0142 H         1 <0>         0.0332
     29 H3         -2.7411   -2.0156   -1.5118 H         1 <0>         0.0332
     30 H4          1.3901   -0.7034   -1.3694 H         1 <0>         0.0450
     31 H5          1.5802   -2.5668    0.1397 H         1 <0>         0.0437
     32 H6          0.7915   -1.7286    1.4704 H         1 <0>         0.0437
     33 H7          0.2487    1.4984   -0.5253 H         1 <0>         0.0583
     34 H8         -6.0385   -1.6344   -0.6007 H         1 <0>         0.0812
     35 H9          0.1042   -4.3466    0.1747 H         1 <0>         0.0391
     36 H10        -1.6189   -4.1523   -0.0101 H         1 <0>         0.0391
     37 H11        -0.8443   -3.6913    1.5241 H         1 <0>         0.0391
     38 H12        -1.2893    2.9528    0.4889 H         1 <0>         0.0624
     39 H13        -5.5785    3.3197    0.2547 H         1 <0>         0.0638
     40 H14        -3.3200    4.3230    0.5697 H         1 <0>         0.0618
     41 H15         3.5239   -0.8668   -0.9836 H         1 <0>         0.1491
     42 H16         4.6881    0.4502    1.3753 H         1 <0>         0.0521
     43 H17        -7.8248   -0.0339   -0.4379 H         1 <0>         0.0456
     44 H18        -7.4635    1.2883    0.7112 H         1 <0>         0.0456
     45 H19        -7.3492    1.5741   -1.0612 H         1 <0>         0.0456
     46 H20         5.2494    1.3795   -1.5077 H         1 <0>         0.0281
     47 H21         4.3811    2.2716   -0.2810 H         1 <0>         0.0281
     48 H22         6.8318   -0.5482    0.5430 H         1 <0>         0.0575
     49 H23         5.5556   -1.7630    0.6067 H         1 <0>         0.0575
     50 H24         7.3465    1.5258   -0.1728 H         1 <0>         0.0230
     51 H25         6.4539    2.2424    1.1883 H         1 <0>         0.0230
     52 H26         6.6293    3.1268   -0.3349 H         1 <0>         0.0230
     53 H27         6.5588   -0.4021   -1.6547 H         1 <0>         0.2095
@<TRIPOS>BOND
     1    1   18 2
     2    2   25 1
     3    2   53 1
     4    3    6 1
     5    3   10 1
     6    3   17 1
     7    4   15 1
     8    4   16 2
     9    4   23 1
    10    5   18 am
    11    5   22 1
    12    5   41 1
    13    6    7 1
    14    6    8 1
    15    6   27 1
    16    7   12 1
    17    7   14 2
    18    8   11 1
    19    8   28 1
    20    8   29 1
    21    9   10 1
    22    9   14 1
    23    9   18 1
    24    9   30 1
    25   10   31 1
    26   10   32 1
    27   11   13 2
    28   11   16 1
    29   12   13 1
    30   12   19 2
    31   13   15 2
    32   14   33 1
    33   15   20 1
    34   16   34 1
    35   17   35 1
    36   17   36 1
    37   17   37 1
    38   19   21 1
    39   19   38 1
    40   20   21 2
    41   20   39 1
    42   21   40 1
    43   22   24 1
    44   22   25 1
    45   22   42 1
    46   23   43 1
    47   23   44 1
    48   23   45 1
    49   24   26 1
    50   24   46 1
    51   24   47 1
    52   25   48 1
    53   25   49 1
    54   26   50 1
    55   26   51 1
    56   26   52 1
