@<TRIPOS>MOLECULE
DB00224
   92    96     0     0     0
SMALL
USER_CHARGES

@<TRIPOS>ATOM
      1 O1          1.2214    0.5748   -2.3668 O.3       1 <0>        -0.3905
      2 O2          6.4998   -0.3155    0.8290 O.3       1 <0>        -0.3893
      3 O3         -2.5411    2.0707    0.1449 O.2       1 <0>        -0.2740
      4 O4          2.4347   -0.5847    1.7417 O.2       1 <0>        -0.2755
      5 N1         -1.6985   -0.4578   -0.3206 N.3       1 <0>        -0.2868
      6 N2         -3.7154   -2.1682    0.8857 N.3       1 <0>        -0.2950
      7 N3          3.9041   -0.4191   -0.0460 N.am      1 <0>        -0.3057
      8 N4         -4.4338    1.7184   -1.1637 N.am      1 <0>        -0.3092
      9 N5         -8.2620   -2.6057    2.2673 N.ar      1 <0>        -0.2629
     10 C1         -3.1354   -0.1635   -0.4509 C.3       1 <0>         0.1002
     11 C2         -3.9400   -0.7269    0.7323 C.3       1 <0>         0.0234
     12 C3         -1.4888   -1.9023   -0.1294 C.3       1 <0>         0.0125
     13 C4         -0.9327   -0.0070   -1.4879 C.3       1 <0>         0.0258
     14 C5         -2.2850   -2.4368    1.0637 C.3       1 <0>         0.0121
     15 C6          0.5569    0.1680   -1.1696 C.3       1 <0>         0.0686
     16 C7          0.8098    1.2318   -0.0854 C.3       1 <0>        -0.0142
     17 C8          2.2997    1.3671    0.3034 C.3       1 <0>         0.0419
     18 C9          4.5769   -1.6678    0.1679 C.3       1 <0>         0.0748
     19 C10        -3.3143    1.3251   -0.4508 C.2       1 <0>         0.2319
     20 C11         5.8268   -1.5547    1.0685 C.3       1 <0>         0.0816
     21 C12        -4.4863   -2.6976    2.0090 C.3       1 <0>         0.0256
     22 C13         6.7573   -2.7105    0.6578 C.3       1 <0>         0.0008
     23 C14         5.1626   -2.2742   -1.0749 C.ar      1 <0>        -0.0215
     24 C15         2.8738    0.0262    0.7698 C.2       1 <0>         0.2170
     25 C16         2.4977    2.3863    1.4477 C.3       1 <0>        -0.0165
     26 C17         6.3973   -2.8737   -0.7900 C.ar      1 <0>        -0.0398
     27 C18        -4.8414    3.0984   -1.2973 C.3       1 <0>         0.0262
     28 C19        -5.9386   -2.8791    1.6566 C.ar      1 <0>        -0.0153
     29 C20         4.6168   -2.3457   -2.3470 C.ar      1 <0>        -0.0565
     30 C21         3.9085    2.9096    1.5631 C.ar      1 <0>        -0.0466
     31 C22         7.1100   -3.5475   -1.7682 C.ar      1 <0>        -0.0582
     32 C23        -3.7228    3.8932   -1.9811 C.3       1 <0>        -0.0442
     33 C24        -6.1155    3.1704   -2.1468 C.3       1 <0>        -0.0442
     34 C25        -5.1127    3.6776    0.0950 C.3       1 <0>        -0.0442
     35 C26         5.3353   -3.0121   -3.3425 C.ar      1 <0>        -0.0614
     36 C27         6.5728   -3.6083   -3.0553 C.ar      1 <0>        -0.0615
     37 C28        -6.3163   -3.4627    0.4524 C.ar      1 <0>        -0.0545
     38 C29        -6.9410   -2.4711    2.5220 C.ar      1 <0>         0.0320
     39 C30         4.8333    2.2493    2.3722 C.ar      1 <0>        -0.0586
     40 C31         4.2880    4.0534    0.8606 C.ar      1 <0>        -0.0586
     41 C32        -7.6655   -3.6183    0.1546 C.ar      1 <0>        -0.0433
     42 C33         6.1374    2.7327    2.4788 C.ar      1 <0>        -0.0615
     43 C34         5.5922    4.5368    0.9671 C.ar      1 <0>        -0.0615
     44 C35         6.5167    3.8763    1.7763 C.ar      1 <0>        -0.0617
     45 C36        -8.5906   -3.1774    1.0871 C.ar      1 <0>         0.0276
     46 H1         -3.5171   -0.5909   -1.3889 H         1 <0>         0.0571
     47 H2         -5.0040   -0.5264    0.5522 H         1 <0>         0.0447
     48 H3         -3.6752   -0.1918    1.6563 H         1 <0>         0.0447
     49 H4         -1.7729   -2.4617   -1.0315 H         1 <0>         0.0439
     50 H5         -0.4326   -2.1163    0.0657 H         1 <0>         0.0439
     51 H6         -1.0579   -0.6891   -2.3405 H         1 <0>         0.0452
     52 H7         -1.2891    0.9598   -1.8661 H         1 <0>         0.0452
     53 H8         -1.9116   -1.9877    1.9940 H         1 <0>         0.0439
     54 H9         -2.1133   -3.5181    1.1304 H         1 <0>         0.0439
     55 H10         0.9876   -0.7960   -0.8835 H         1 <0>         0.0606
     56 H11         0.4577    2.2073   -0.4447 H         1 <0>         0.0298
     57 H12         0.2344    0.9864    0.8153 H         1 <0>         0.0298
     58 H13         2.8479    1.7252   -0.5768 H         1 <0>         0.0398
     59 H14         3.8780   -2.3947    0.6014 H         1 <0>         0.0574
     60 H15         5.5684   -1.5816    2.1321 H         1 <0>         0.0618
     61 H16        -4.1202   -3.6965    2.2837 H         1 <0>         0.0476
     62 H17        -4.3689   -2.0716    2.9036 H         1 <0>         0.0476
     63 H18         7.8153   -2.4628    0.7824 H         1 <0>         0.0339
     64 H19         6.5084   -3.6294    1.1982 H         1 <0>         0.0339
     65 H20         2.1883    1.9611    2.4119 H         1 <0>         0.0320
     66 H21         1.8310    3.2449    1.2885 H         1 <0>         0.0320
     67 H22         4.2267    0.1712   -0.8072 H         1 <0>         0.1494
     68 H23        -5.0091    1.0058   -1.6044 H         1 <0>         0.1492
     69 H24         2.1761    0.4513   -2.2334 H         1 <0>         0.2098
     70 H25         3.6530   -1.9013   -2.5721 H         1 <0>         0.0621
     71 H26         8.0610   -4.0192   -1.5452 H         1 <0>         0.0620
     72 H27        -2.8137    3.9605   -1.3760 H         1 <0>         0.0250
     73 H28        -3.4448    3.4381   -2.9392 H         1 <0>         0.0250
     74 H29        -4.0446    4.9215   -2.1838 H         1 <0>         0.0250
     75 H30        -6.9307    2.6007   -1.6856 H         1 <0>         0.0250
     76 H31        -6.4563    4.2043   -2.2702 H         1 <0>         0.0250
     77 H32        -5.9494    2.7495   -3.1454 H         1 <0>         0.0250
     78 H33        -5.5240    4.6911    0.0203 H         1 <0>         0.0250
     79 H34        -5.8394    3.0654    0.6422 H         1 <0>         0.0250
     80 H35        -4.2131    3.7479    0.7136 H         1 <0>         0.0250
     81 H36         7.2774   -0.2898    1.4126 H         1 <0>         0.2099
     82 H37         4.9292   -3.0769   -4.3484 H         1 <0>         0.0618
     83 H38         7.1136   -4.1280   -3.8416 H         1 <0>         0.0618
     84 H39        -5.5759   -3.8124   -0.2618 H         1 <0>         0.0622
     85 H40        -6.7107   -2.0095    3.4771 H         1 <0>         0.0833
     86 H41         4.5513    1.3586    2.9272 H         1 <0>         0.0620
     87 H42         3.5776    4.5751    0.2248 H         1 <0>         0.0620
     88 H43        -7.9832   -4.0728   -0.7768 H         1 <0>         0.0633
     89 H44         6.8574    2.2180    3.1082 H         1 <0>         0.0618
     90 H45         5.8879    5.4268    0.4195 H         1 <0>         0.0618
     91 H46         7.5324    4.2524    1.8588 H         1 <0>         0.0618
     92 H47        -9.6553   -3.2766    0.9029 H         1 <0>         0.0829
@<TRIPOS>BOND
     1    1   15 1
     2    1   69 1
     3    2   20 1
     4    2   81 1
     5    3   19 2
     6    4   24 2
     7    5   10 1
     8    5   12 1
     9    5   13 1
    10    6   11 1
    11    6   14 1
    12    6   21 1
    13    7   18 1
    14    7   24 am
    15    7   67 1
    16    8   19 am
    17    8   27 1
    18    8   68 1
    19    9   38 ar
    20    9   45 ar
    21   10   11 1
    22   10   19 1
    23   10   46 1
    24   11   47 1
    25   11   48 1
    26   12   14 1
    27   12   49 1
    28   12   50 1
    29   13   15 1
    30   13   51 1
    31   13   52 1
    32   14   53 1
    33   14   54 1
    34   15   16 1
    35   15   55 1
    36   16   17 1
    37   16   56 1
    38   16   57 1
    39   17   24 1
    40   17   25 1
    41   17   58 1
    42   18   20 1
    43   18   23 1
    44   18   59 1
    45   20   22 1
    46   20   60 1
    47   21   28 1
    48   21   61 1
    49   21   62 1
    50   22   26 1
    51   22   63 1
    52   22   64 1
    53   23   26 ar
    54   23   29 ar
    55   25   30 1
    56   25   65 1
    57   25   66 1
    58   26   31 ar
    59   27   32 1
    60   27   33 1
    61   27   34 1
    62   28   37 ar
    63   28   38 ar
    64   29   35 ar
    65   29   70 1
    66   30   39 ar
    67   30   40 ar
    68   31   36 ar
    69   31   71 1
    70   32   72 1
    71   32   73 1
    72   32   74 1
    73   33   75 1
    74   33   76 1
    75   33   77 1
    76   34   78 1
    77   34   79 1
    78   34   80 1
    79   35   36 ar
    80   35   82 1
    81   36   83 1
    82   37   41 ar
    83   37   84 1
    84   38   85 1
    85   39   42 ar
    86   39   86 1
    87   40   43 ar
    88   40   87 1
    89   41   45 ar
    90   41   88 1
    91   42   44 ar
    92   42   89 1
    93   43   44 ar
    94   43   90 1
    95   44   91 1
    96   45   92 1
