@<TRIPOS>MOLECULE
DB00181
   26    26     0     0     0
SMALL
USER_CHARGES

@<TRIPOS>ATOM
      1 Cl1        -5.0333   -0.0045    0.4122 Cl        1 <0>        -0.0835
      2 O1          1.1723    3.2181   -0.1944 O.3       1 <0>        -0.4806
      3 O2          0.6843    1.9180   -1.9889 O.2       1 <0>        -0.2510
      4 N1          2.8789   -1.8145    0.4994 N.3       1 <0>        -0.3294
      5 C1          0.9113   -0.4658   -0.2774 C.3       1 <0>         0.0065
      6 C2         -0.5994   -0.3493   -0.1015 C.ar      1 <0>        -0.0425
      7 C3          1.5924    0.8881    0.0268 C.3       1 <0>         0.0527
      8 C4          1.4355   -1.6291    0.5966 C.3       1 <0>         0.0004
      9 C5         -1.4204   -1.1460   -0.8701 C.ar      1 <0>        -0.0569
     10 C6         -1.0928    0.5496    0.8194 C.ar      1 <0>        -0.0569
     11 C7          1.1114    2.0281   -0.8480 C.2       1 <0>         0.3053
     12 C8         -2.8019   -1.0386   -0.7100 C.ar      1 <0>        -0.0431
     13 C9         -2.4744    0.6571    0.9797 C.ar      1 <0>        -0.0431
     14 C10        -3.3289   -0.1372    0.2149 C.ar      1 <0>         0.0410
     15 H1          1.1126   -0.7019   -1.3325 H         1 <0>         0.0366
     16 H2          1.5246    1.1591    1.0857 H         1 <0>         0.0384
     17 H3          2.6659    0.8072   -0.1867 H         1 <0>         0.0384
     18 H4          0.9491   -2.5665    0.3020 H         1 <0>         0.0428
     19 H5          1.1769   -1.4629    1.6494 H         1 <0>         0.0428
     20 H6         -1.0172   -1.8505   -1.5912 H         1 <0>         0.0621
     21 H7         -0.4777    1.1638    1.4647 H         1 <0>         0.0621
     22 H8          3.3611   -1.0039    0.8842 H         1 <0>         0.1182
     23 H9          3.1521   -1.8693   -0.4810 H         1 <0>         0.1182
     24 H10        -3.4557   -1.6639   -1.3126 H         1 <0>         0.0632
     25 H11        -2.8715    1.3580    1.7094 H         1 <0>         0.0632
     26 H12         0.8446    3.9569   -0.7502 H         1 <0>         0.2951
@<TRIPOS>BOND
     1    1   14 1
     2    2   11 1
     3    2   26 1
     4    3   11 2
     5    4    8 1
     6    4   22 1
     7    4   23 1
     8    5    6 1
     9    5    7 1
    10    5    8 1
    11    5   15 1
    12    6    9 ar
    13    6   10 ar
    14    7   11 1
    15    7   16 1
    16    7   17 1
    17    8   18 1
    18    8   19 1
    19    9   12 ar
    20    9   20 1
    21   10   13 ar
    22   10   21 1
    23   12   14 ar
    24   12   24 1
    25   13   14 ar
    26   13   25 1
