@<TRIPOS>MOLECULE
DB00543
   38    41     0     0     0
SMALL
USER_CHARGES

@<TRIPOS>ATOM
      1 Cl1         1.4057   -4.0355   -2.0531 Cl        1 <0>        -0.0835
      2 O1         -2.2187   -0.8766    1.3288 O.3       1 <0>        -0.4508
      3 N1          1.4522    0.7252    0.4474 N.pl3     1 <0>        -0.2175
      4 N2          4.2810    1.0239    0.2185 N.3       1 <0>        -0.3089
      5 N3         -0.7313    1.4139    0.3565 N.2       1 <0>        -0.0376
      6 C1          2.0189    2.0283    0.1064 C.3       1 <0>         0.0931
      7 C2          2.3386   -0.1729    1.1848 C.3       1 <0>         0.0931
      8 C3          3.3710    1.8483   -0.5821 C.3       1 <0>         0.0322
      9 C4          3.6818   -0.2907    0.4662 C.3       1 <0>         0.0322
     10 C5          0.1414    0.4449    0.2643 C.2       1 <0>         0.3250
     11 C6         -0.2080   -0.9766   -0.0273 C.ar      1 <0>         0.1091
     12 C7         -1.3444   -1.5699    0.5283 C.ar      1 <0>         0.1436
     13 C8         -2.1120    1.2468    0.1750 C.ar      1 <0>         0.2183
     14 C9          0.6410   -1.7472   -0.8321 C.ar      1 <0>        -0.0249
     15 C10        -2.8386    0.1612    0.6753 C.ar      1 <0>         0.1789
     16 C11        -1.6143   -2.9250    0.3168 C.ar      1 <0>        -0.0171
     17 C12         0.3591   -3.0957   -1.0611 C.ar      1 <0>         0.0420
     18 C13        -0.7637   -3.6852   -0.4829 C.ar      1 <0>        -0.0399
     19 C14        -2.8184    2.2714   -0.4692 C.ar      1 <0>        -0.0071
     20 C15        -4.2303    0.1007    0.5554 C.ar      1 <0>        -0.0150
     21 C16        -4.2067    2.2080   -0.6122 C.ar      1 <0>        -0.0574
     22 C17        -4.9127    1.1242   -0.0965 C.ar      1 <0>        -0.0580
     23 H1          2.1303    2.6245    1.0204 H         1 <0>         0.0739
     24 H2          1.3605    2.5862   -0.5700 H         1 <0>         0.0739
     25 H3          1.9266   -1.1702    1.3648 H         1 <0>         0.0739
     26 H4          2.5000    0.2556    2.1832 H         1 <0>         0.0739
     27 H5          3.2331    1.3925   -1.5707 H         1 <0>         0.0461
     28 H6          3.8283    2.8307   -0.7419 H         1 <0>         0.0461
     29 H7          4.3683   -0.8759    1.0881 H         1 <0>         0.0461
     30 H8          3.5747   -0.8308   -0.4811 H         1 <0>         0.0461
     31 H9          5.1594    0.9047   -0.2851 H         1 <0>         0.1222
     32 H10         1.5047   -1.2978   -1.3140 H         1 <0>         0.0642
     33 H11        -2.4892   -3.3888    0.7640 H         1 <0>         0.0655
     34 H12        -0.9889   -4.7357   -0.6480 H         1 <0>         0.0633
     35 H13        -2.2876    3.1371   -0.8595 H         1 <0>         0.0662
     36 H14        -4.7825   -0.7436    0.9589 H         1 <0>         0.0656
     37 H15        -4.7364    3.0110   -1.1166 H         1 <0>         0.0619
     38 H16        -5.9926    1.0790   -0.1999 H         1 <0>         0.0619
@<TRIPOS>BOND
     1    1   17 1
     2    2   12 1
     3    2   15 1
     4    3    6 1
     5    3    7 1
     6    3   10 1
     7    4    8 1
     8    4    9 1
     9    4   31 1
    10    5   10 2
    11    5   13 1
    12    6    8 1
    13    6   23 1
    14    6   24 1
    15    7    9 1
    16    7   25 1
    17    7   26 1
    18    8   27 1
    19    8   28 1
    20    9   29 1
    21    9   30 1
    22   10   11 1
    23   11   12 ar
    24   11   14 ar
    25   12   16 ar
    26   13   15 ar
    27   13   19 ar
    28   14   17 ar
    29   14   32 1
    30   15   20 ar
    31   16   18 ar
    32   16   33 1
    33   17   18 ar
    34   18   34 1
    35   19   21 ar
    36   19   35 1
    37   20   22 ar
    38   20   36 1
    39   21   22 ar
    40   21   37 1
    41   22   38 1
