@<TRIPOS>MOLECULE
DB00784
   33    34     0     0     0
SMALL
USER_CHARGES

@<TRIPOS>ATOM
      1 O1         -3.8770    2.5816    0.6122 O.3       1 <0>        -0.4771
      2 O2         -1.8654    2.2184    1.5846 O.2       1 <0>        -0.2451
      3 N1         -0.4379    0.3734    0.0423 N.pl3     1 <0>        -0.3136
      4 C1          1.9951    0.4234   -0.1583 C.ar      1 <0>        -0.0264
      5 C2          0.8230   -0.2088    0.2663 C.ar      1 <0>         0.0345
      6 C3          3.2358   -0.1715    0.0712 C.ar      1 <0>        -0.0458
      7 C4         -1.7224   -0.1781   -0.1622 C.ar      1 <0>         0.0454
      8 C5          0.9017   -1.4407    0.9219 C.ar      1 <0>        -0.0403
      9 C6          3.3093   -1.4010    0.7261 C.ar      1 <0>        -0.0585
     10 C7          1.9208    1.7434   -0.8594 C.3       1 <0>        -0.0377
     11 C8          2.1424   -2.0354    1.1516 C.ar      1 <0>        -0.0597
     12 C9         -2.8688    0.5084    0.2385 C.ar      1 <0>         0.0799
     13 C10         4.5008    0.4873   -0.3723 C.3       1 <0>        -0.0394
     14 C11        -1.8354   -1.4264   -0.7744 C.ar      1 <0>        -0.0397
     15 C12        -4.1279   -0.0535    0.0270 C.ar      1 <0>        -0.0460
     16 C13        -3.0946   -1.9882   -0.9859 C.ar      1 <0>        -0.0600
     17 C14        -4.2405   -1.3018   -0.5852 C.ar      1 <0>        -0.0609
     18 C15        -2.7849    1.8142    0.8806 C.2       1 <0>         0.3386
     19 H1         -0.4307    1.3883    0.0693 H         1 <0>         0.1522
     20 H2          0.0136   -1.9487    1.2880 H         1 <0>         0.0636
     21 H3          4.2675   -1.8784    0.9135 H         1 <0>         0.0620
     22 H4          1.0448    1.8025   -1.5147 H         1 <0>         0.0278
     23 H5          1.8681    2.5541   -0.1256 H         1 <0>         0.0278
     24 H6          2.7730    1.9288   -1.5190 H         1 <0>         0.0278
     25 H7          2.2001   -2.9901    1.6664 H         1 <0>         0.0618
     26 H8          5.3830   -0.0391    0.0093 H         1 <0>         0.0278
     27 H9          4.5720    0.4887   -1.4648 H         1 <0>         0.0278
     28 H10         4.5624    1.5135    0.0051 H         1 <0>         0.0278
     29 H11        -0.9636   -1.9745   -1.1207 H         1 <0>         0.0636
     30 H12        -5.0401    0.4479    0.3395 H         1 <0>         0.0626
     31 H13        -3.1831   -2.9578   -1.4671 H         1 <0>         0.0618
     32 H14        -5.2207   -1.7405   -0.7483 H         1 <0>         0.0618
     33 H15        -3.8205    3.4605    1.0445 H         1 <0>         0.2954
@<TRIPOS>BOND
     1    1   18 1
     2    1   33 1
     3    2   18 2
     4    3    5 1
     5    3    7 1
     6    3   19 1
     7    4    5 ar
     8    4    6 ar
     9    4   10 1
    10    5    8 ar
    11    6    9 ar
    12    6   13 1
    13    7   12 ar
    14    7   14 ar
    15    8   11 ar
    16    8   20 1
    17    9   11 ar
    18    9   21 1
    19   10   22 1
    20   10   23 1
    21   10   24 1
    22   11   25 1
    23   12   15 ar
    24   12   18 1
    25   13   26 1
    26   13   27 1
    27   13   28 1
    28   14   16 ar
    29   14   29 1
    30   15   17 ar
    31   15   30 1
    32   16   17 ar
    33   16   31 1
    34   17   32 1
