@<TRIPOS>MOLECULE
DB00419
   36    36     0     0     0
SMALL
USER_CHARGES

@<TRIPOS>ATOM
      1 O1          3.5861    0.5567   -0.7874 O.3       1 <0>        -0.3875
      2 O2          2.6888   -2.0812   -1.5239 O.3       1 <0>        -0.3866
      3 O3          1.0495   -3.2597    0.5491 O.3       1 <0>        -0.3879
      4 O4          2.8591    2.8520    0.1287 O.3       1 <0>        -0.3934
      5 N1          0.2116    0.3658    0.8462 N.3       1 <0>        -0.2923
      6 C1          1.5502    0.8946    0.5091 C.3       1 <0>         0.0621
      7 C2          2.2345    0.1166   -0.6364 C.3       1 <0>         0.1011
      8 C3          2.2804   -1.3867   -0.3436 C.3       1 <0>         0.1095
      9 C4          0.9113   -1.9200    0.0742 C.3       1 <0>         0.0962
     10 C5          0.2901   -1.0623    1.1789 C.3       1 <0>         0.0279
     11 C6         -0.8143    0.6258   -0.1632 C.3       1 <0>        -0.0006
     12 C7          1.5246    2.4067    0.2414 C.3       1 <0>         0.0622
     13 C8         -2.1898    0.2165    0.3605 C.3       1 <0>        -0.0404
     14 C9         -3.2813    0.5001   -0.6724 C.3       1 <0>        -0.0548
     15 C10        -4.6489    0.0627   -0.1725 C.3       1 <0>        -0.0652
     16 H1          2.1846    0.7669    1.3996 H         1 <0>         0.0511
     17 H2          1.7325    0.2946   -1.5955 H         1 <0>         0.0636
     18 H3          3.0357   -1.6067    0.4213 H         1 <0>         0.0646
     19 H4          0.2493   -1.9728   -0.7982 H         1 <0>         0.0633
     20 H5         -0.6535   -1.4931    1.5246 H         1 <0>         0.0453
     21 H6          0.9209   -1.1585    2.0758 H         1 <0>         0.0453
     22 H7         -0.6033    0.1211   -1.1127 H         1 <0>         0.0427
     23 H8         -0.8733    1.6972   -0.3811 H         1 <0>         0.0427
     24 H9          1.0382    2.9553    1.0546 H         1 <0>         0.0573
     25 H10         1.0223    2.6527   -0.6985 H         1 <0>         0.0573
     26 H11        -2.4147    0.7505    1.2922 H         1 <0>         0.0277
     27 H12        -2.2449   -0.8549    0.5723 H         1 <0>         0.0277
     28 H13         3.5637    1.4584   -1.1496 H         1 <0>         0.2100
     29 H14         2.6966   -3.0310   -1.3145 H         1 <0>         0.2100
     30 H15         0.1629   -3.5777    0.7906 H         1 <0>         0.2099
     31 H16        -3.0567   -0.0263   -1.6075 H         1 <0>         0.0263
     32 H17        -3.3078    1.5717   -0.9013 H         1 <0>         0.0263
     33 H18         3.2957    2.7070    0.9854 H         1 <0>         0.2095
     34 H19        -5.4141    0.2803   -0.9241 H         1 <0>         0.0230
     35 H20        -4.6684   -1.0130    0.0296 H         1 <0>         0.0230
     36 H21        -4.9172    0.5907    0.7482 H         1 <0>         0.0230
@<TRIPOS>BOND
     1    1    7 1
     2    1   28 1
     3    2    8 1
     4    2   29 1
     5    3    9 1
     6    3   30 1
     7    4   12 1
     8    4   33 1
     9    5    6 1
    10    5   10 1
    11    5   11 1
    12    6    7 1
    13    6   12 1
    14    6   16 1
    15    7    8 1
    16    7   17 1
    17    8    9 1
    18    8   18 1
    19    9   10 1
    20    9   19 1
    21   10   20 1
    22   10   21 1
    23   11   13 1
    24   11   22 1
    25   11   23 1
    26   12   24 1
    27   12   25 1
    28   13   14 1
    29   13   26 1
    30   13   27 1
    31   14   15 1
    32   14   31 1
    33   14   32 1
    34   15   34 1
    35   15   35 1
    36   15   36 1
