@<TRIPOS>MOLECULE
DB00989
   40    40     0     0     0
SMALL
USER_CHARGES

@<TRIPOS>ATOM
      1 O1          1.8075    0.5340    0.3850 O.3       1 <0>        -0.4114
      2 O2          1.7614   -0.6066   -1.6290 O.2       1 <0>        -0.2258
      3 N1         -3.1897   -1.0466   -0.1514 N.3       1 <0>        -0.3017
      4 N2          3.5653   -0.8766   -0.1858 N.am      1 <0>        -0.2704
      5 C1         -3.0732    0.2960    0.4474 C.3       1 <0>         0.0323
      6 C2         -1.8086    0.9855    0.0609 C.ar      1 <0>        -0.0271
      7 C3         -3.2329    0.1562    1.9724 C.3       1 <0>        -0.0454
      8 C4         -0.5770    0.4304    0.4081 C.ar      1 <0>        -0.0145
      9 C5         -1.8577    2.1856   -0.6485 C.ar      1 <0>        -0.0569
     10 C6         -3.1672   -0.9477   -1.6061 C.3       1 <0>        -0.0125
     11 C7         -4.4134   -1.6934    0.3080 C.3       1 <0>        -0.0125
     12 C8          0.5723    1.0903    0.0367 C.ar      1 <0>         0.1335
     13 C9         -0.6751    2.8305   -1.0104 C.ar      1 <0>        -0.0580
     14 C10         0.5565    2.2755   -0.6630 C.ar      1 <0>        -0.0192
     15 C11         4.2339   -0.5532    1.0704 C.3       1 <0>         0.0147
     16 C12         2.3307   -0.3419   -0.5707 C.2       1 <0>         0.4079
     17 C13         4.2621   -1.8108   -1.0583 C.3       1 <0>         0.0063
     18 C14         5.1412    0.6480    0.8850 C.3       1 <0>        -0.0492
     19 H1         -3.9210    0.9114    0.1105 H         1 <0>         0.0509
     20 H2         -2.5789   -0.6179    2.3915 H         1 <0>         0.0248
     21 H3         -4.2653   -0.0543    2.2715 H         1 <0>         0.0248
     22 H4         -2.9639    1.0982    2.4668 H         1 <0>         0.0248
     23 H5         -0.5176   -0.5037    0.9590 H         1 <0>         0.0657
     24 H6         -2.8085    2.6318   -0.9279 H         1 <0>         0.0621
     25 H7         -2.2045   -0.5889   -1.9847 H         1 <0>         0.0391
     26 H8         -3.9610   -0.2979   -1.9933 H         1 <0>         0.0391
     27 H9         -3.3006   -1.9385   -2.0566 H         1 <0>         0.0391
     28 H10        -4.5860   -2.6199   -0.2542 H         1 <0>         0.0391
     29 H11        -5.3020   -1.0649    0.1760 H         1 <0>         0.0391
     30 H12        -4.3464   -2.0182    1.3513 H         1 <0>         0.0391
     31 H13        -0.7130    3.7649   -1.5627 H         1 <0>         0.0619
     32 H14         1.4771    2.7772   -0.9437 H         1 <0>         0.0654
     33 H15         3.4872   -0.3318    1.8396 H         1 <0>         0.0463
     34 H16         4.8050   -1.4241    1.4100 H         1 <0>         0.0463
     35 H17         5.2465   -1.4047   -1.3069 H         1 <0>         0.0429
     36 H18         3.7087   -1.9857   -1.9844 H         1 <0>         0.0429
     37 H19         4.3796   -2.7633   -0.5332 H         1 <0>         0.0429
     38 H20         5.9203    0.4491    0.1419 H         1 <0>         0.0245
     39 H21         4.5765    1.5240    0.5490 H         1 <0>         0.0245
     40 H22         5.6319    0.9015    1.8297 H         1 <0>         0.0245
@<TRIPOS>BOND
     1    1   12 1
     2    1   16 1
     3    2   16 2
     4    3    5 1
     5    3   10 1
     6    3   11 1
     7    4   15 1
     8    4   16 am
     9    4   17 1
    10    5    6 1
    11    5    7 1
    12    5   19 1
    13    6    8 ar
    14    6    9 ar
    15    7   20 1
    16    7   21 1
    17    7   22 1
    18    8   12 ar
    19    8   23 1
    20    9   13 ar
    21    9   24 1
    22   10   25 1
    23   10   26 1
    24   10   27 1
    25   11   28 1
    26   11   29 1
    27   11   30 1
    28   12   14 ar
    29   13   14 ar
    30   13   31 1
    31   14   32 1
    32   15   18 1
    33   15   33 1
    34   15   34 1
    35   17   35 1
    36   17   36 1
    37   17   37 1
    38   18   38 1
    39   18   39 1
    40   18   40 1
