@<TRIPOS>MOLECULE
DB00173
   15    16     0     0     0
SMALL
USER_CHARGES

@<TRIPOS>ATOM
      1 N1         -1.4983   -0.6908   -0.0000 N.pl3     1 <0>        -0.3404
      2 N2         -1.8945    1.5028    0.0001 N.2       1 <0>        -0.2164
      3 N3          0.4314    2.2105   -0.0000 N.2       1 <0>        -0.2144
      4 N4          2.0251    0.3634   -0.0001 N.2       1 <0>        -0.2189
      5 N5          1.3196   -1.9279   -0.0002 N.pl3     1 <0>        -0.3414
      6 C1         -0.2705   -0.0924    0.0001 C.2       1 <0>         0.1251
      7 C2         -0.5429    1.2691    0.0001 C.2       1 <0>         0.1825
      8 C3          1.0313   -0.5531   -0.0001 C.2       1 <0>         0.1451
      9 C4         -2.4392    0.3049    0.0000 C.cat     1 <0>         0.0963
     10 C5          1.6689    1.6702    0.0000 C.2       1 <0>         0.1205
     11 H1         -1.6828   -1.6853   -0.0003 H         1 <0>         0.1669
     12 H2         -3.4981    0.0890   -0.0000 H         1 <0>         0.1027
     13 H3          2.4906    2.3784   -0.0001 H         1 <0>         0.1048
     14 H4          2.2851   -2.2280    0.0001 H         1 <0>         0.1438
     15 H5          0.5744   -2.6109    0.0002 H         1 <0>         0.1438
@<TRIPOS>BOND
     1    1    6 1
     2    1    9 2
     3    1   11 1
     4    2    7 2
     5    2    9 1
     6    3    7 1
     7    3   10 2
     8    4    8 2
     9    4   10 1
    10    5    8 1
    11    5   14 1
    12    5   15 1
    13    6    7 2
    14    6    8 1
    15    9   12 1
    16   10   13 1
