@<TRIPOS>MOLECULE
DB00264
   44    44     0     0     0
SMALL
USER_CHARGES

@<TRIPOS>ATOM
      1 O1          1.2871   -2.1863    0.5734 O.3       1 <0>        -0.4894
      2 O2          4.0419   -2.5635    0.6073 O.3       1 <0>        -0.3872
      3 O3         -4.0622    1.1630    0.4093 O.3       1 <0>        -0.3826
      4 N1          2.8711    0.7125   -0.6608 N.3       1 <0>        -0.3112
      5 C1          3.4466   -1.6768   -0.3445 C.3       1 <0>         0.1015
      6 C2          3.4934   -0.2586    0.2288 C.3       1 <0>         0.0254
      7 C3          2.8787    2.0425   -0.0670 C.3       1 <0>         0.0021
      8 C4          2.0297   -2.1626   -0.6417 C.3       1 <0>         0.1166
      9 C5          2.1184    2.0355    1.2562 C.3       1 <0>        -0.0499
     10 C6          2.2660    3.0392   -1.0457 C.3       1 <0>        -0.0499
     11 C7         -0.0588   -1.9547    0.4765 C.ar      1 <0>         0.1206
     12 C8         -2.7928   -1.4831    0.2769 C.ar      1 <0>        -0.0450
     13 C9         -4.2587   -1.2308    0.1707 C.3       1 <0>        -0.0042
     14 C10        -0.7390   -2.3219   -0.6796 C.ar      1 <0>        -0.0197
     15 C11        -0.7335   -1.3538    1.5339 C.ar      1 <0>        -0.0197
     16 C12        -2.1102   -2.0853   -0.7797 C.ar      1 <0>        -0.0550
     17 C13        -2.1045   -1.1173    1.4339 C.ar      1 <0>        -0.0550
     18 C14        -4.5877    0.1404   -0.4273 C.3       1 <0>         0.0513
     19 C15        -4.3427    2.4559   -0.1093 C.3       1 <0>         0.0365
     20 H1          4.0419   -1.7308   -1.2639 H         1 <0>         0.0640
     21 H2          3.0102   -0.3012    1.2102 H         1 <0>         0.0450
     22 H3          4.5403    0.0132    0.4172 H         1 <0>         0.0450
     23 H4          3.9121    2.3610    0.1211 H         1 <0>         0.0455
     24 H5          3.3625    0.7246   -1.5540 H         1 <0>         0.1223
     25 H6          2.0721   -3.1880   -1.0279 H         1 <0>         0.0723
     26 H7          1.5834   -1.5092   -1.4012 H         1 <0>         0.0723
     27 H8          2.6848    1.5620    2.0642 H         1 <0>         0.0245
     28 H9          1.1467    1.5363    1.1662 H         1 <0>         0.0245
     29 H10         1.9233    3.0626    1.5870 H         1 <0>         0.0245
     30 H11         1.2231    2.7896   -1.2721 H         1 <0>         0.0245
     31 H12         2.2861    4.0529   -0.6310 H         1 <0>         0.0245
     32 H13         2.8221    3.0581   -1.9896 H         1 <0>         0.0245
     33 H14        -4.7303   -2.0150   -0.4344 H         1 <0>         0.0335
     34 H15        -4.7080   -1.3080    1.1695 H         1 <0>         0.0335
     35 H16         4.9571   -2.2676    0.7504 H         1 <0>         0.2100
     36 H17        -2.6364   -2.3794   -1.6841 H         1 <0>         0.0621
     37 H18        -2.6236   -0.6474    2.2651 H         1 <0>         0.0621
     38 H19        -0.2524   -2.8213   -1.5118 H         1 <0>         0.0654
     39 H20        -0.2007   -1.0660    2.4358 H         1 <0>         0.0654
     40 H21        -4.1572    0.2298   -1.4321 H         1 <0>         0.0563
     41 H22        -5.6758    0.2509   -0.4999 H         1 <0>         0.0563
     42 H23        -5.4231    2.6172   -0.1750 H         1 <0>         0.0523
     43 H24        -3.9197    3.1989    0.5721 H         1 <0>         0.0523
     44 H25        -3.8815    2.5827   -1.0935 H         1 <0>         0.0523
@<TRIPOS>BOND
     1    1    8 1
     2    1   11 1
     3    2    5 1
     4    2   35 1
     5    3   18 1
     6    3   19 1
     7    4    6 1
     8    4    7 1
     9    4   24 1
    10    5    6 1
    11    5    8 1
    12    5   20 1
    13    6   21 1
    14    6   22 1
    15    7    9 1
    16    7   10 1
    17    7   23 1
    18    8   25 1
    19    8   26 1
    20    9   27 1
    21    9   28 1
    22    9   29 1
    23   10   30 1
    24   10   31 1
    25   10   32 1
    26   11   14 ar
    27   11   15 ar
    28   12   13 1
    29   12   16 ar
    30   12   17 ar
    31   13   18 1
    32   13   33 1
    33   13   34 1
    34   14   16 ar
    35   14   38 1
    36   15   17 ar
    37   15   39 1
    38   16   36 1
    39   17   37 1
    40   18   40 1
    41   18   41 1
    42   19   42 1
    43   19   43 1
    44   19   44 1
