@<TRIPOS>MOLECULE
DB00357
   33    34     0     0     0
SMALL
USER_CHARGES

@<TRIPOS>ATOM
      1 O1          1.6687   -0.2511    2.3958 O.2       1 <0>        -0.2744
      2 O2          2.0035   -3.6544   -0.6749 O.2       1 <0>        -0.2754
      3 N1          1.8296   -1.9109    0.8200 N.am      1 <0>        -0.2557
      4 N2         -4.8348    0.0530    0.0759 N.pl3     1 <0>        -0.3580
      5 C1          0.8905    0.2945    0.1569 C.3       1 <0>         0.0724
      6 C2          1.5102   -0.0992   -1.2029 C.3       1 <0>        -0.0267
      7 C3          1.3165    1.7441    0.4869 C.3       1 <0>        -0.0378
      8 C4         -0.6469    0.2294    0.1353 C.ar      1 <0>        -0.0323
      9 C5          1.2391   -1.5584   -1.5349 C.3       1 <0>         0.0256
     10 C6          1.5100   -0.6167    1.2293 C.2       1 <0>         0.2297
     11 C7          1.7388   -2.4742   -0.4473 C.2       1 <0>         0.2193
     12 C8          2.8243    1.8837    0.4914 C.3       1 <0>        -0.0640
     13 C9         -1.3149   -0.5977    1.0320 C.ar      1 <0>        -0.0558
     14 C10        -1.3562    0.9983   -0.7812 C.ar      1 <0>        -0.0558
     15 C11        -2.7083   -0.6567    1.0119 C.ar      1 <0>        -0.0408
     16 C12        -2.7497    0.9394   -0.8012 C.ar      1 <0>        -0.0408
     17 C13        -3.4257    0.1119    0.0952 C.ar      1 <0>         0.0246
     18 H1          2.6009    0.0105   -1.1924 H         1 <0>         0.0283
     19 H2          1.1406    0.5344   -2.0175 H         1 <0>         0.0283
     20 H3          0.9265    2.0411    1.4696 H         1 <0>         0.0276
     21 H4          0.9089    2.4641   -0.2330 H         1 <0>         0.0276
     22 H5          1.7546   -1.8202   -2.4659 H         1 <0>         0.0359
     23 H6          0.1708   -1.7481   -1.6816 H         1 <0>         0.0359
     24 H7          2.1868   -2.5240    1.5478 H         1 <0>         0.1575
     25 H8          3.3525    1.1205    1.0674 H         1 <0>         0.0230
     26 H9          3.2366    1.9053   -0.5221 H         1 <0>         0.0230
     27 H10         3.0885    2.8498    0.9378 H         1 <0>         0.0230
     28 H11        -0.8046   -1.2136    1.7641 H         1 <0>         0.0621
     29 H12        -0.8542    1.6477   -1.4920 H         1 <0>         0.0621
     30 H13        -3.2242   -1.3050    1.7156 H         1 <0>         0.0636
     31 H14        -3.2976    1.5426   -1.5207 H         1 <0>         0.0636
     32 H15        -5.3556    0.6084   -0.5897 H         1 <0>         0.1423
     33 H16        -5.3253   -0.5485    0.7245 H         1 <0>         0.1423
@<TRIPOS>BOND
     1    1   10 2
     2    2   11 2
     3    3   10 am
     4    3   11 am
     5    3   24 1
     6    4   17 1
     7    4   32 1
     8    4   33 1
     9    5    6 1
    10    5    7 1
    11    5    8 1
    12    5   10 1
    13    6    9 1
    14    6   18 1
    15    6   19 1
    16    7   12 1
    17    7   20 1
    18    7   21 1
    19    8   13 ar
    20    8   14 ar
    21    9   11 1
    22    9   22 1
    23    9   23 1
    24   12   25 1
    25   12   26 1
    26   12   27 1
    27   13   15 ar
    28   13   28 1
    29   14   16 ar
    30   14   29 1
    31   15   17 ar
    32   15   30 1
    33   16   17 ar
    34   16   31 1
