@<TRIPOS>MOLECULE
DB00899
   55    56     0     0     0
SMALL
USER_CHARGES

@<TRIPOS>ATOM
      1 O1         -0.7421    2.8407    0.6172 O.3       1 <0>        -0.4664
      2 O2         -1.6149    1.4373    2.2314 O.2       1 <0>        -0.2484
      3 O3         -3.1581    2.0438   -0.9415 O.2       1 <0>        -0.2752
      4 O4          6.4981   -1.3243   -0.2641 O.3       1 <0>        -0.4679
      5 O5          6.2368    0.9677   -0.2251 O.2       1 <0>        -0.2508
      6 N1          2.0195    0.3807   -0.4688 N.3       1 <0>        -0.3016
      7 N2         -2.1794    0.0415   -0.1364 N.am      1 <0>        -0.2547
      8 C1         -0.8533    0.5532    0.1200 C.3       1 <0>         0.1408
      9 C2          0.0460   -0.5369    0.7111 C.3       1 <0>        -0.0078
     10 C3         -0.2366    1.1324   -1.1569 C.3       1 <0>        -0.0078
     11 C4          1.5056   -0.0865    0.8250 C.3       1 <0>         0.0014
     12 C5          1.2340    1.5163   -0.9689 C.3       1 <0>         0.0014
     13 C6         -1.1245    1.6357    1.1281 C.2       1 <0>         0.3312
     14 C7          3.4314    0.7461   -0.3561 C.3       1 <0>         0.0090
     15 C8         -2.4503   -1.3656    0.1482 C.ar      1 <0>         0.0374
     16 C9         -3.2371    0.8465   -0.6549 C.2       1 <0>         0.2205
     17 C10         4.3053   -0.5047   -0.3649 C.3       1 <0>         0.0576
     18 C11        -4.5757    0.1303   -0.8104 C.3       1 <0>         0.0217
     19 C12        -2.2496   -2.3284   -0.8411 C.ar      1 <0>        -0.0402
     20 C13        -2.9088   -1.7467    1.4094 C.ar      1 <0>        -0.0402
     21 C14         5.7761   -0.1644   -0.2769 C.2       1 <0>         0.3080
     22 C15        -5.6626    1.0289   -1.3801 C.3       1 <0>        -0.0570
     23 C16        -0.9461    3.9660    1.4775 C.3       1 <0>         0.0817
     24 C17        -2.5077   -3.6719   -0.5694 C.ar      1 <0>        -0.0600
     25 C18        -3.1668   -3.0903    1.6810 C.ar      1 <0>        -0.0600
     26 C19        -2.9662   -4.0529    0.6916 C.ar      1 <0>        -0.0616
     27 C20         7.9182   -1.1653   -0.1820 C.3       1 <0>         0.0817
     28 H1         -0.2811   -0.8434    1.7126 H         1 <0>         0.0304
     29 H2          0.0653   -1.4329    0.0792 H         1 <0>         0.0304
     30 H3         -0.2897    0.3690   -1.9477 H         1 <0>         0.0304
     31 H4         -0.7795    1.9922   -1.5660 H         1 <0>         0.0304
     32 H5          1.5895    0.7003    1.5866 H         1 <0>         0.0427
     33 H6          2.0785   -0.9451    1.1905 H         1 <0>         0.0427
     34 H7          1.6173    1.8136   -1.9536 H         1 <0>         0.0427
     35 H8          1.3575    2.3866   -0.3158 H         1 <0>         0.0427
     36 H9          3.6250    1.3617    0.5322 H         1 <0>         0.0432
     37 H10         3.7308    1.3557   -1.2197 H         1 <0>         0.0432
     38 H11         4.0791   -1.1523    0.4881 H         1 <0>         0.0390
     39 H12         4.1433   -1.0677   -1.2917 H         1 <0>         0.0390
     40 H13        -4.4571   -0.7216   -1.4869 H         1 <0>         0.0356
     41 H14        -4.9104   -0.2278    0.1682 H         1 <0>         0.0356
     42 H15        -1.8928   -2.0416   -1.8268 H         1 <0>         0.0636
     43 H16        -3.0716   -1.0060    2.1876 H         1 <0>         0.0636
     44 H17        -5.3826    1.4068   -2.3688 H         1 <0>         0.0234
     45 H18        -5.8426    1.8905   -0.7285 H         1 <0>         0.0234
     46 H19        -6.6013    0.4748   -1.4795 H         1 <0>         0.0234
     47 H20        -2.0102    4.0800    1.7051 H         1 <0>         0.0661
     48 H21        -0.3634    3.8501    2.3963 H         1 <0>         0.0661
     49 H22        -0.6010    4.8610    0.9533 H         1 <0>         0.0661
     50 H23        -2.3516   -4.4215   -1.3398 H         1 <0>         0.0618
     51 H24        -3.5245   -3.3869    2.6627 H         1 <0>         0.0618
     52 H25        -3.1672   -5.0990    0.9031 H         1 <0>         0.0618
     53 H26         8.2880   -0.6122   -1.0505 H         1 <0>         0.0661
     54 H27         8.1889   -0.6539    0.7466 H         1 <0>         0.0661
     55 H28         8.3720   -2.1599   -0.1801 H         1 <0>         0.0661
@<TRIPOS>BOND
     1    1   13 1
     2    1   23 1
     3    2   13 2
     4    3   16 2
     5    4   21 1
     6    4   27 1
     7    5   21 2
     8    6   11 1
     9    6   12 1
    10    6   14 1
    11    7    8 1
    12    7   15 1
    13    7   16 am
    14    8    9 1
    15    8   10 1
    16    8   13 1
    17    9   11 1
    18    9   28 1
    19    9   29 1
    20   10   12 1
    21   10   30 1
    22   10   31 1
    23   11   32 1
    24   11   33 1
    25   12   34 1
    26   12   35 1
    27   14   17 1
    28   14   36 1
    29   14   37 1
    30   15   19 ar
    31   15   20 ar
    32   16   18 1
    33   17   21 1
    34   17   38 1
    35   17   39 1
    36   18   22 1
    37   18   40 1
    38   18   41 1
    39   19   24 ar
    40   19   42 1
    41   20   25 ar
    42   20   43 1
    43   22   44 1
    44   22   45 1
    45   22   46 1
    46   23   47 1
    47   23   48 1
    48   23   49 1
    49   24   26 ar
    50   24   50 1
    51   25   26 ar
    52   25   51 1
    53   26   52 1
    54   27   53 1
    55   27   54 1
    56   27   55 1
