@<TRIPOS>MOLECULE
DB00268
   43    44     0     0     0
SMALL
USER_CHARGES

@<TRIPOS>ATOM
      1 O1         -4.1813    2.7434   -2.3730 O.2       1 <0>        -0.2751
      2 N1          1.6425   -0.1589    0.4362 N.3       1 <0>        -0.3020
      3 N2         -4.8519    0.8395   -1.1675 N.am      1 <0>        -0.2850
      4 C1          0.2672   -0.5550    0.1535 C.3       1 <0>         0.0029
      5 C2         -0.7254    0.1137    1.1170 C.3       1 <0>        -0.0145
      6 C3         -2.1301   -0.3035    0.8565 C.ar      1 <0>        -0.0408
      7 C4          1.7983    1.2903    0.3032 C.3       1 <0>        -0.0014
      8 C5          2.5719   -0.8541   -0.4557 C.3       1 <0>        -0.0014
      9 C6         -2.9390    0.3911   -0.0217 C.ar      1 <0>        -0.0142
     10 C7         -2.6409    1.6041   -0.8442 C.3       1 <0>         0.0514
     11 C8         -4.2510   -0.0154   -0.2504 C.ar      1 <0>         0.0373
     12 C9          3.2393    1.6978    0.6003 C.3       1 <0>        -0.0431
     13 C10         2.4554   -2.3648   -0.2692 C.3       1 <0>        -0.0431
     14 C11        -2.6708   -1.4199    1.5024 C.ar      1 <0>        -0.0581
     15 C12        -3.9650    1.8404   -1.5794 C.2       1 <0>         0.2216
     16 C13        -4.8091   -1.1126    0.3734 C.ar      1 <0>        -0.0402
     17 C14        -3.9987   -1.8209    1.2628 C.ar      1 <0>        -0.0597
     18 C15         3.4230    3.2036    0.4898 C.3       1 <0>        -0.0641
     19 C16         3.4271   -3.1107   -1.1704 C.3       1 <0>        -0.0641
     20 H1         -0.0053   -0.3317   -0.8869 H         1 <0>         0.0430
     21 H2          0.1194   -1.6281    0.3011 H         1 <0>         0.0430
     22 H3         -0.6983    1.2054    1.0539 H         1 <0>         0.0326
     23 H4         -0.4570   -0.1273    2.1547 H         1 <0>         0.0326
     24 H5          1.5081    1.6344   -0.6981 H         1 <0>         0.0426
     25 H6          1.1847    1.8263    1.0326 H         1 <0>         0.0426
     26 H7          2.4003   -0.5848   -1.5059 H         1 <0>         0.0426
     27 H8          3.6138   -0.6282   -0.2158 H         1 <0>         0.0426
     28 H9         -2.4169    2.4717   -0.2182 H         1 <0>         0.0408
     29 H10        -1.8498    1.4133   -1.5736 H         1 <0>         0.0408
     30 H11         3.5348    1.3682    1.6034 H         1 <0>         0.0275
     31 H12         3.9503    1.2774   -0.1158 H         1 <0>         0.0275
     32 H13         2.6453   -2.6394    0.7754 H         1 <0>         0.0275
     33 H14         1.4672   -2.7455   -0.5403 H         1 <0>         0.0275
     34 H15        -2.0680   -1.9964    2.2005 H         1 <0>         0.0620
     35 H16        -5.8080    0.7397   -1.4873 H         1 <0>         0.1548
     36 H17        -5.8319   -1.4190    0.1866 H         1 <0>         0.0636
     37 H18        -4.3955   -2.6923    1.7767 H         1 <0>         0.0618
     38 H19         3.1763    3.5576   -0.5164 H         1 <0>         0.0230
     39 H20         2.7840    3.7304    1.2058 H         1 <0>         0.0230
     40 H21         4.4620    3.4763    0.7004 H         1 <0>         0.0230
     41 H22         3.2353   -2.8888   -2.2252 H         1 <0>         0.0230
     42 H23         4.4624   -2.8362   -0.9441 H         1 <0>         0.0230
     43 H24         3.3256   -4.1912   -1.0269 H         1 <0>         0.0230
@<TRIPOS>BOND
     1    1   15 2
     2    2    4 1
     3    2    7 1
     4    2    8 1
     5    3   11 1
     6    3   15 am
     7    3   35 1
     8    4    5 1
     9    4   20 1
    10    4   21 1
    11    5    6 1
    12    5   22 1
    13    5   23 1
    14    6    9 ar
    15    6   14 ar
    16    7   12 1
    17    7   24 1
    18    7   25 1
    19    8   13 1
    20    8   26 1
    21    8   27 1
    22    9   10 1
    23    9   11 ar
    24   10   15 1
    25   10   28 1
    26   10   29 1
    27   11   16 ar
    28   12   18 1
    29   12   30 1
    30   12   31 1
    31   13   19 1
    32   13   32 1
    33   13   33 1
    34   14   17 ar
    35   14   34 1
    36   16   17 ar
    37   16   36 1
    38   17   37 1
    39   18   38 1
    40   18   39 1
    41   18   40 1
    42   19   41 1
    43   19   42 1
    44   19   43 1
