@<TRIPOS>MOLECULE
DB00817
   36    38     0     0     0
SMALL
USER_CHARGES

@<TRIPOS>ATOM
      1 O1         -2.8936    2.8841   -0.5094 O.2       1 <0>        -0.2863
      2 O2         -5.2574    2.1358    0.3478 O.3       1 <0>        -0.4770
      3 O3         -5.7764    0.0081   -0.3103 O.2       1 <0>        -0.2449
      4 N1         -1.7148   -0.9178    0.3795 N.pl3     1 <0>        -0.3459
      5 N2          5.7464   -0.1852    0.1209 N.ar      1 <0>        -0.2632
      6 C1         -0.7155    0.0537    0.1366 C.ar      1 <0>         0.0533
      7 C2         -1.0930    1.3806   -0.1743 C.ar      1 <0>         0.0460
      8 C3         -1.3074   -2.2841    0.6984 C.3       1 <0>         0.0205
      9 C4          0.6618   -0.2269    0.1865 C.ar      1 <0>        -0.0298
     10 C5          1.6164    0.7651   -0.0606 C.ar      1 <0>        -0.0158
     11 C6         -3.0472   -0.5533    0.3078 C.2       1 <0>         0.0228
     12 C7         -2.5332    1.7442   -0.2432 C.2       1 <0>         0.2034
     13 C8         -3.5169    0.6666    0.0238 C.2       1 <0>         0.1220
     14 C9         -0.1364    2.3746   -0.4220 C.ar      1 <0>        -0.0484
     15 C10         1.2181    2.0624   -0.3641 C.ar      1 <0>        -0.0532
     16 C11         3.0257    0.4408    0.0013 C.ar      1 <0>        -0.0150
     17 C12        -1.1793   -3.1010   -0.5730 C.3       1 <0>        -0.0471
     18 C13        -4.9661    0.8664   -0.0074 C.2       1 <0>         0.3420
     19 C14         3.9479    1.4095    0.3798 C.ar      1 <0>        -0.0359
     20 C15         3.4609   -0.8402   -0.3176 C.ar      1 <0>        -0.0359
     21 C16         5.2850    1.0489    0.4235 C.ar      1 <0>         0.0281
     22 C17         4.8198   -1.1001   -0.2429 C.ar      1 <0>         0.0281
     23 H1         -0.4087   -2.3445    1.3195 H         1 <0>         0.0489
     24 H2         -2.0826   -2.7543    1.3194 H         1 <0>         0.0489
     25 H3          0.9974   -1.2257    0.4405 H         1 <0>         0.0644
     26 H4         -3.7181   -1.3822    0.5127 H         1 <0>         0.0818
     27 H5         -0.4294    3.3919   -0.6669 H         1 <0>         0.0625
     28 H6          1.9249    2.8554   -0.5920 H         1 <0>         0.0624
     29 H7         -2.1191   -3.1129   -1.1353 H         1 <0>         0.0247
     30 H8         -0.4018   -2.7014   -1.2320 H         1 <0>         0.0247
     31 H9         -0.9177   -4.1363   -0.3325 H         1 <0>         0.0247
     32 H10         3.6741    2.4181    0.6693 H         1 <0>         0.0639
     33 H11         2.8022   -1.6338   -0.6527 H         1 <0>         0.0639
     34 H12         6.0444    1.7654    0.7196 H         1 <0>         0.0830
     35 H13         5.2125   -2.0811   -0.4893 H         1 <0>         0.0830
     36 H14        -6.2230    2.3090    0.3385 H         1 <0>         0.2954
@<TRIPOS>BOND
     1    1   12 2
     2    2   18 1
     3    2   36 1
     4    3   18 2
     5    4    6 1
     6    4    8 1
     7    4   11 2
     8    5   21 ar
     9    5   22 ar
    10    6    7 ar
    11    6    9 ar
    12    7   12 1
    13    7   14 ar
    14    8   17 1
    15    8   23 1
    16    8   24 1
    17    9   10 ar
    18    9   25 1
    19   10   15 ar
    20   10   16 1
    21   11   13 1
    22   11   26 1
    23   12   13 1
    24   13   18 1
    25   14   15 ar
    26   14   27 1
    27   15   28 1
    28   16   19 ar
    29   16   20 ar
    30   17   29 1
    31   17   30 1
    32   17   31 1
    33   19   21 ar
    34   19   32 1
    35   20   22 ar
    36   20   33 1
    37   21   34 1
    38   22   35 1
