@<TRIPOS>MOLECULE
DB00367
   51    54     0     0     0
SMALL
USER_CHARGES

@<TRIPOS>ATOM
      1 O1         -4.4378    0.6430    0.0541 O.3       1 <0>        -0.3760
      2 O2          6.4043   -0.0068    0.9509 O.2       1 <0>        -0.2927
      3 C1         -1.9869    0.2902   -0.0311 C.3       1 <0>         0.0136
      4 C2         -1.1650   -0.9980    0.1977 C.3       1 <0>        -0.0286
      5 C3          0.2492   -0.9124   -0.3844 C.3       1 <0>        -0.0339
      6 C4          1.0037    0.2722    0.2875 C.3       1 <0>        -0.0314
      7 C5         -3.3657   -0.1478    0.5493 C.3       1 <0>         0.1319
      8 C6         -1.2640    1.4489    0.6791 C.3       1 <0>        -0.0433
      9 C7         -2.0930   -2.1062   -0.2941 C.3       1 <0>        -0.0458
     10 C8          0.1953    1.5922    0.2095 C.3       1 <0>        -0.0488
     11 C9          2.4443    0.4206   -0.2916 C.3       1 <0>        -0.0160
     12 C10        -3.5140   -1.6020    0.0320 C.3       1 <0>        -0.0118
     13 C11         1.0331   -2.2143   -0.1750 C.3       1 <0>        -0.0460
     14 C12        -2.1539    0.6649   -1.5335 C.3       1 <0>        -0.0464
     15 C13         2.4282   -2.1074   -0.7802 C.3       1 <0>        -0.0308
     16 C14         3.1867   -0.9093   -0.2654 C.2       1 <0>        -0.0629
     17 C15         3.2175    1.5226    0.4618 C.3       1 <0>        -0.0392
     18 C16        -2.9363    1.9441   -1.6694 C.3       1 <0>        -0.0646
     19 C17        -3.4234   -0.1338    2.0244 C.1       1 <0>        -0.0704
     20 C18         4.7075    1.4951    0.1700 C.3       1 <0>         0.0104
     21 C19         4.4580   -1.0492    0.1430 C.2       1 <0>        -0.0197
     22 C20         5.2735    0.1368    0.4919 C.2       1 <0>         0.1561
     23 C21        -3.4701   -0.1219    3.2237 C.1       1 <0>        -0.1163
     24 H1         -1.0438   -1.1566    1.2812 H         1 <0>         0.0310
     25 H2          0.1933   -0.7370   -1.4656 H         1 <0>         0.0307
     26 H3          1.1011    0.0296    1.3574 H         1 <0>         0.0309
     27 H4         -1.2135    1.2398    1.7560 H         1 <0>         0.0272
     28 H5         -1.7677    2.4145    0.6201 H         1 <0>         0.0272
     29 H6         -1.8877   -3.0580    0.2068 H         1 <0>         0.0269
     30 H7         -1.9867   -2.2718   -1.3721 H         1 <0>         0.0269
     31 H8          0.2252    1.9885   -0.8116 H         1 <0>         0.0268
     32 H9          0.6678    2.3512    0.8439 H         1 <0>         0.0268
     33 H10         2.3646    0.7209   -1.3460 H         1 <0>         0.0349
     34 H11        -4.1357   -1.6443   -0.8709 H         1 <0>         0.0303
     35 H12        -3.9929   -2.2592    0.7679 H         1 <0>         0.0303
     36 H13         0.5096   -3.0538   -0.6466 H         1 <0>         0.0271
     37 H14         1.1079   -2.4447    0.8955 H         1 <0>         0.0271
     38 H15        -2.6516   -0.1267   -2.1043 H         1 <0>         0.0269
     39 H16        -1.1832    0.8026   -2.0188 H         1 <0>         0.0269
     40 H17         2.3435   -2.0194   -1.8711 H         1 <0>         0.0310
     41 H18         2.9716   -3.0396   -0.5836 H         1 <0>         0.0310
     42 H19         3.0672    1.4059    1.5438 H         1 <0>         0.0275
     43 H20         2.8279    2.5101    0.1898 H         1 <0>         0.0275
     44 H21        -3.9397    1.7362   -2.0605 H         1 <0>         0.0230
     45 H22        -3.0544    2.5812   -0.7954 H         1 <0>         0.0230
     46 H23        -2.4633    2.5688   -2.4377 H         1 <0>         0.0230
     47 H24        -4.4221    1.5001    0.5137 H         1 <0>         0.2114
     48 H25         5.2141    2.2437    0.7886 H         1 <0>         0.0345
     49 H26         4.9124    1.7201   -0.8823 H         1 <0>         0.0345
     50 H27         4.9555   -2.0126    0.1640 H         1 <0>         0.0652
     51 H28        -3.5107   -0.1113    4.2877 H         1 <0>         0.1229
@<TRIPOS>BOND
     1    1    7 1
     2    1   47 1
     3    2   22 2
     4    3    4 1
     5    3    7 1
     6    3    8 1
     7    3   14 1
     8    4    5 1
     9    4    9 1
    10    4   24 1
    11    5    6 1
    12    5   13 1
    13    5   25 1
    14    6   10 1
    15    6   11 1
    16    6   26 1
    17    7   12 1
    18    7   19 1
    19    8   10 1
    20    8   27 1
    21    8   28 1
    22    9   12 1
    23    9   29 1
    24    9   30 1
    25   10   31 1
    26   10   32 1
    27   11   16 1
    28   11   17 1
    29   11   33 1
    30   12   34 1
    31   12   35 1
    32   13   15 1
    33   13   36 1
    34   13   37 1
    35   14   18 1
    36   14   38 1
    37   14   39 1
    38   15   16 1
    39   15   40 1
    40   15   41 1
    41   16   21 2
    42   17   20 1
    43   17   42 1
    44   17   43 1
    45   18   44 1
    46   18   45 1
    47   18   46 1
    48   19   23 3
    49   20   22 1
    50   20   48 1
    51   20   49 1
    52   21   22 1
    53   21   50 1
    54   23   51 1
