@<TRIPOS>MOLECULE
DB00790
   58    59     0     0     0
SMALL
USER_CHARGES

@<TRIPOS>ATOM
      1 O1          0.5719   -1.9324    1.7306 O.2       1 <0>        -0.2739
      2 O2          0.4705    3.1011   -0.1636 O.3       1 <0>        -0.4793
      3 O3          0.2974    1.1010   -1.2433 O.2       1 <0>        -0.2489
      4 O4         -2.9143    1.1522   -0.6632 O.3       1 <0>        -0.4638
      5 O5         -3.5679    1.3843    1.5340 O.2       1 <0>        -0.2491
      6 N1          1.6615   -0.0907    0.8503 N.am      1 <0>        -0.2834
      7 N2         -1.6515   -0.5573    2.1495 N.3       1 <0>        -0.2937
      8 C1          3.9525    0.2332    0.4488 C.3       1 <0>        -0.0201
      9 C2          2.8493   -0.8304    0.4151 C.3       1 <0>         0.0298
     10 C3          3.2188    1.4975   -0.0070 C.3       1 <0>        -0.0194
     11 C4          1.8247    1.3474    0.6119 C.3       1 <0>         0.1234
     12 C5          5.1991   -0.1129   -0.3599 C.3       1 <0>        -0.0485
     13 C6          2.6234   -1.4580   -0.9657 C.3       1 <0>        -0.0340
     14 C7          4.8982   -0.7168   -1.7278 C.3       1 <0>        -0.0527
     15 C8          3.9305   -1.8895   -1.6169 C.3       1 <0>        -0.0514
     16 C9          0.6495   -0.7124    1.5684 C.2       1 <0>         0.2333
     17 C10         0.7900    1.8002   -0.3704 C.2       1 <0>         0.3255
     18 C11        -0.4063    0.1913    2.1543 C.3       1 <0>         0.0827
     19 C12        -0.0184    0.5954    3.5623 C.3       1 <0>        -0.0411
     20 C13        -2.2619   -0.5523    0.8256 C.3       1 <0>         0.1064
     21 C14        -3.1860   -1.7630    0.6274 C.3       1 <0>        -0.0274
     22 C15        -2.9982    0.7643    0.6453 C.2       1 <0>         0.3243
     23 C16        -3.7936   -1.8761   -0.7762 C.3       1 <0>        -0.0540
     24 C17        -4.6504   -3.1265   -0.9076 C.3       1 <0>        -0.0652
     25 C18        -3.5574    2.3902   -0.9829 C.3       1 <0>         0.0897
     26 C19        -3.3739    2.6746   -2.4584 C.3       1 <0>        -0.0306
     27 H1          4.2554    0.3938    1.4936 H         1 <0>         0.0319
     28 H2          3.0725   -1.6276    1.1350 H         1 <0>         0.0503
     29 H3          3.7173    2.4065    0.3463 H         1 <0>         0.0292
     30 H4          3.1732    1.5602   -1.1009 H         1 <0>         0.0292
     31 H5          1.7321    1.8785    1.5630 H         1 <0>         0.0617
     32 H6          5.8317    0.7745   -0.4779 H         1 <0>         0.0269
     33 H7          5.7882   -0.8415    0.2121 H         1 <0>         0.0269
     34 H8          1.9506   -2.3194   -0.8742 H         1 <0>         0.0283
     35 H9          2.1175   -0.7520   -1.6348 H         1 <0>         0.0283
     36 H10         4.4777    0.0483   -2.3910 H         1 <0>         0.0265
     37 H11         5.8326   -1.0552   -2.1899 H         1 <0>         0.0265
     38 H12         4.3884   -2.6954   -1.0307 H         1 <0>         0.0266
     39 H13         3.7277   -2.2938   -2.6150 H         1 <0>         0.0266
     40 H14        -0.5342    1.1144    1.5902 H         1 <0>         0.0554
     41 H15        -2.3070   -0.1918    2.8394 H         1 <0>         0.1234
     42 H16        -0.7720    1.2560    4.0052 H         1 <0>         0.0249
     43 H17         0.9402    1.1236    3.5808 H         1 <0>         0.0249
     44 H18         0.0880   -0.2786    4.2161 H         1 <0>         0.0249
     45 H19        -0.2096    3.4158   -0.7968 H         1 <0>         0.2951
     46 H20        -1.4834   -0.6192    0.0545 H         1 <0>         0.0576
     47 H21        -4.0033   -1.7212    1.3600 H         1 <0>         0.0285
     48 H22        -2.6199   -2.6797    0.8399 H         1 <0>         0.0285
     49 H23        -2.9951   -1.9029   -1.5262 H         1 <0>         0.0263
     50 H24        -4.4192   -1.0036   -0.9920 H         1 <0>         0.0263
     51 H25        -4.0564   -4.0293   -0.7337 H         1 <0>         0.0230
     52 H26        -5.0769   -3.1894   -1.9136 H         1 <0>         0.0230
     53 H27        -5.4758   -3.1139   -0.1887 H         1 <0>         0.0230
     54 H28        -3.1090    3.1968   -0.3922 H         1 <0>         0.0694
     55 H29        -4.6255    2.3176   -0.7496 H         1 <0>         0.0694
     56 H30        -2.3094    2.7320   -2.7093 H         1 <0>         0.0262
     57 H31        -3.7994    1.8662   -3.0621 H         1 <0>         0.0262
     58 H32        -3.8545    3.6160   -2.7384 H         1 <0>         0.0262
@<TRIPOS>BOND
     1    1   16 2
     2    2   17 1
     3    2   45 1
     4    3   17 2
     5    4   22 1
     6    4   25 1
     7    5   22 2
     8    6    9 1
     9    6   11 1
    10    6   16 am
    11    7   18 1
    12    7   20 1
    13    7   41 1
    14    8    9 1
    15    8   10 1
    16    8   12 1
    17    8   27 1
    18    9   13 1
    19    9   28 1
    20   10   11 1
    21   10   29 1
    22   10   30 1
    23   11   17 1
    24   11   31 1
    25   12   14 1
    26   12   32 1
    27   12   33 1
    28   13   15 1
    29   13   34 1
    30   13   35 1
    31   14   15 1
    32   14   36 1
    33   14   37 1
    34   15   38 1
    35   15   39 1
    36   16   18 1
    37   18   19 1
    38   18   40 1
    39   19   42 1
    40   19   43 1
    41   19   44 1
    42   20   21 1
    43   20   22 1
    44   20   46 1
    45   21   23 1
    46   21   47 1
    47   21   48 1
    48   23   24 1
    49   23   49 1
    50   23   50 1
    51   24   51 1
    52   24   52 1
    53   24   53 1
    54   25   26 1
    55   25   54 1
    56   25   55 1
    57   26   56 1
    58   26   57 1
    59   26   58 1
