@<TRIPOS>MOLECULE
DB00203
   63    66     0     0     0
SMALL
USER_CHARGES

@<TRIPOS>ATOM
      1 S1         -3.7796    0.6154   -2.4580 S.o2      1 <0>         0.0610
      2 O1         -4.3337    1.8514   -2.9678 O.2       1 <0>        -0.1528
      3 O2         -3.5104   -0.5004   -3.3395 O.2       1 <0>        -0.1528
      4 O3          1.2072    1.9398    0.4015 O.3       1 <0>        -0.4915
      5 O4          1.0181   -4.2002   -0.3456 O.2       1 <0>        -0.2634
      6 N1         -4.7393    0.0707   -1.1486 N.pl3     1 <0>        -0.1741
      7 N2         -5.7282   -0.6002    1.4669 N.3       1 <0>        -0.3028
      8 N3          2.2497   -0.3129   -0.5490 N.pl3     1 <0>        -0.3361
      9 N4          3.8913   -3.3270   -0.2026 N.pl3     1 <0>        -0.2598
     10 N5          5.0061   -2.5634   -0.1746 N.2       1 <0>        -0.1736
     11 N6          0.4872   -1.9639   -0.5538 N.2       1 <0>        -0.1893
     12 C1         -5.2118    1.1318   -0.2146 C.3       1 <0>         0.0333
     13 C2         -4.2048   -1.1074   -0.4081 C.3       1 <0>         0.0333
     14 C3         -6.2654    0.5505    0.7270 C.3       1 <0>         0.0131
     15 C4         -5.2777   -1.6456    0.5372 C.3       1 <0>         0.0131
     16 C5         -2.2850    1.0058   -1.6034 C.ar      1 <0>         0.1064
     17 C6         -6.7299   -1.1307    2.3909 C.3       1 <0>        -0.0127
     18 C7         -1.3141    0.0288   -1.4534 C.ar      1 <0>        -0.0212
     19 C8         -0.1333    0.3376   -0.7779 C.ar      1 <0>         0.0608
     20 C9         -2.1073    2.2829   -1.0966 C.ar      1 <0>        -0.0319
     21 C10         0.9144   -0.7222   -0.6188 C.2       1 <0>         0.1462
     22 C11         3.1463   -1.3009   -0.4099 C.2       1 <0>         0.0947
     23 C12         0.0604    1.6189   -0.2613 C.ar      1 <0>         0.1312
     24 C13        -0.9266    2.5915   -0.4210 C.ar      1 <0>        -0.0174
     25 C14         4.5374   -1.3146   -0.3020 C.2       1 <0>         0.0871
     26 C15         2.7430   -2.6050   -0.3421 C.2       1 <0>         0.1512
     27 C16         5.4711   -0.1769   -0.3137 C.3       1 <0>        -0.0069
     28 C17         1.3720   -3.0287   -0.4094 C.2       1 <0>         0.2992
     29 C18         5.7489    0.3967    1.0897 C.3       1 <0>        -0.0504
     30 C19         4.0165   -4.7605   -0.0850 C.3       1 <0>         0.0311
     31 C20         6.7441    1.5458    1.0605 C.3       1 <0>        -0.0649
     32 C21         1.6431    3.2953    0.3227 C.3       1 <0>         0.0868
     33 C22         3.1520    3.3357    0.4372 C.3       1 <0>        -0.0307
     34 H1         -4.3762    1.5275    0.3721 H         1 <0>         0.0456
     35 H2         -5.6663    1.9538   -0.7768 H         1 <0>         0.0456
     36 H3         -3.9268   -1.8994   -1.1111 H         1 <0>         0.0456
     37 H4         -3.3252   -0.8295    0.1812 H         1 <0>         0.0456
     38 H5         -7.1545    0.2596    0.1514 H         1 <0>         0.0439
     39 H6         -6.5708    1.3353    1.4294 H         1 <0>         0.0439
     40 H7         -4.8523   -2.4857    1.0993 H         1 <0>         0.0439
     41 H8         -6.1226   -2.0345   -0.0469 H         1 <0>         0.0439
     42 H9         -6.3142   -1.9605    2.9732 H         1 <0>         0.0391
     43 H10        -7.6258   -1.4889    1.8709 H         1 <0>         0.0391
     44 H11        -7.0329   -0.3628    3.1113 H         1 <0>         0.0391
     45 H12        -1.4665   -0.9646   -1.8650 H         1 <0>         0.0645
     46 H13        -2.8670    3.0515   -1.2019 H         1 <0>         0.0638
     47 H14        -0.8326    3.5920   -0.0094 H         1 <0>         0.0655
     48 H15         2.5080    0.6652   -0.6239 H         1 <0>         0.1674
     49 H16         6.4215   -0.4832   -0.7701 H         1 <0>         0.0329
     50 H17         5.0735    0.6201   -0.9546 H         1 <0>         0.0329
     51 H18         4.8107    0.7405    1.5412 H         1 <0>         0.0266
     52 H19         6.1384   -0.3953    1.7412 H         1 <0>         0.0266
     53 H20         3.4718   -5.0824    0.8058 H         1 <0>         0.0473
     54 H21         3.5974   -5.2185   -0.9841 H         1 <0>         0.0473
     55 H22         5.0718   -5.0298    0.0094 H         1 <0>         0.0473
     56 H23         7.7066    1.2194    0.6544 H         1 <0>         0.0230
     57 H24         6.3718    2.3694    0.4432 H         1 <0>         0.0230
     58 H25         6.9128    1.9278    2.0722 H         1 <0>         0.0230
     59 H26         1.1955    3.8664    1.1436 H         1 <0>         0.0694
     60 H27         1.3763    3.7563   -0.6367 H         1 <0>         0.0694
     61 H28         3.6181    2.7662   -0.3731 H         1 <0>         0.0262
     62 H29         3.4784    2.8807    1.3778 H         1 <0>         0.0262
     63 H30         3.5196    4.3650    0.3989 H         1 <0>         0.0262
@<TRIPOS>BOND
     1    1    2 2
     2    1    3 2
     3    1    6 1
     4    1   16 1
     5    4   23 1
     6    4   32 1
     7    5   28 2
     8    6   12 1
     9    6   13 1
    10    7   14 1
    11    7   15 1
    12    7   17 1
    13    8   21 1
    14    8   22 2
    15    8   48 1
    16    9   10 1
    17    9   26 2
    18    9   30 1
    19   10   25 2
    20   11   21 2
    21   11   28 1
    22   12   14 1
    23   12   34 1
    24   12   35 1
    25   13   15 1
    26   13   36 1
    27   13   37 1
    28   14   38 1
    29   14   39 1
    30   15   40 1
    31   15   41 1
    32   16   18 ar
    33   16   20 ar
    34   17   42 1
    35   17   43 1
    36   17   44 1
    37   18   19 ar
    38   18   45 1
    39   19   21 1
    40   19   23 ar
    41   20   24 ar
    42   20   46 1
    43   22   25 1
    44   22   26 1
    45   23   24 ar
    46   24   47 1
    47   25   27 1
    48   26   28 1
    49   27   29 1
    50   27   49 1
    51   27   50 1
    52   29   31 1
    53   29   51 1
    54   29   52 1
    55   30   53 1
    56   30   54 1
    57   30   55 1
    58   31   56 1
    59   31   57 1
    60   31   58 1
    61   32   33 1
    62   32   59 1
    63   32   60 1
    64   33   61 1
    65   33   62 1
    66   33   63 1
