@<TRIPOS>MOLECULE
DB00911
   29    29     0     0     0
SMALL
USER_CHARGES

@<TRIPOS>ATOM
      1 S1         -2.0561    0.0281   -0.6456 S.o2      1 <0>        -0.0296
      2 O1         -2.2261    1.2421   -1.4262 O.2       1 <0>        -0.1743
      3 O2         -2.1993   -1.2770   -1.2683 O.2       1 <0>        -0.1743
      4 O3          3.0619    3.4343    0.1620 O.3       1 <0>        -0.5747
      5 O4          1.1899    2.6770   -0.7096 O.2       1 <0>         0.0431
      6 N1          1.9907    0.0548   -0.2113 N.pl3     1 <0>        -0.2691
      7 N2          3.8431   -0.7118    0.7146 N.2       1 <0>        -0.2338
      8 N3          2.3095    2.4705   -0.1597 N.pl3     1 <0>         0.1004
      9 C1         -0.4783    0.0943    0.1423 C.3       1 <0>         0.0838
     10 C2          0.6772    0.0447   -0.8472 C.3       1 <0>         0.0497
     11 C3         -3.1985    0.1011    0.7152 C.3       1 <0>         0.0630
     12 C4          2.6921   -1.0441    0.1733 C.cat     1 <0>         0.1116
     13 C5          2.7217    1.1582    0.0955 C.2       1 <0>         0.3679
     14 C6         -4.6329    0.0561    0.2382 C.3       1 <0>        -0.0457
     15 C7          3.8674    0.6597    0.6697 C.2       1 <0>         0.1255
     16 C8          2.1862   -2.4191   -0.0154 C.3       1 <0>        -0.0061
     17 H1         -0.4293   -0.7488    0.8392 H         1 <0>         0.0517
     18 H2         -0.4481    1.0175    0.7298 H         1 <0>         0.0517
     19 H3          0.6113   -0.8964   -1.4083 H         1 <0>         0.0510
     20 H4          0.6221    0.7928   -1.6401 H         1 <0>         0.0510
     21 H5         -2.9864   -0.7487    1.3706 H         1 <0>         0.0497
     22 H6         -3.0052    1.0304    1.2592 H         1 <0>         0.0497
     23 H7         -5.3187    0.1021    1.0897 H         1 <0>         0.0245
     24 H8         -4.8567    0.8981   -0.4246 H         1 <0>         0.0245
     25 H9         -4.8380   -0.8667   -0.3142 H         1 <0>         0.0245
     26 H10         4.7126    1.2127    1.0544 H         1 <0>         0.0917
     27 H11         1.2018   -2.5514    0.4430 H         1 <0>         0.0307
     28 H12         2.1209   -2.6705   -1.0784 H         1 <0>         0.0307
     29 H13         2.8650   -3.1399    0.4523 H         1 <0>         0.0307
@<TRIPOS>BOND
     1    1    2 2
     2    1    3 2
     3    1    9 1
     4    1   11 1
     5    4    8 1
     6    5    8 2
     7    6   10 1
     8    6   12 1
     9    6   13 2
    10    7   12 1
    11    7   15 2
    12    8   13 1
    13    9   10 1
    14    9   17 1
    15    9   18 1
    16   10   19 1
    17   10   20 1
    18   11   14 1
    19   11   21 1
    20   11   22 1
    21   12   16 1
    22   13   15 1
    23   14   23 1
    24   14   24 1
    25   14   25 1
    26   15   26 1
    27   16   27 1
    28   16   28 1
    29   16   29 1
