@<TRIPOS>MOLECULE
DB00968
   28    28     0     0     0
SMALL
USER_CHARGES

@<TRIPOS>ATOM
      1 O1         -1.0805    1.4164    1.6826 O.3       1 <0>        -0.4793
      2 O2         -2.2533    2.5202    0.0971 O.2       1 <0>        -0.2489
      3 O3          3.2331    2.0922   -0.3865 O.3       1 <0>        -0.5033
      4 O4          4.3809   -0.2797    0.4962 O.3       1 <0>        -0.5033
      5 N1         -3.3793    0.1142   -0.7206 N.3       1 <0>        -0.3158
      6 C1         -2.0423    0.0971   -0.1082 C.3       1 <0>         0.1157
      7 C2         -0.9971   -0.1985   -1.2111 C.3       1 <0>         0.0007
      8 C3          0.4446   -0.2170   -0.7541 C.ar      1 <0>        -0.0414
      9 C4         -2.0710   -1.0026    0.9648 C.3       1 <0>        -0.0362
     10 C5         -1.8223    1.4639    0.5459 C.2       1 <0>         0.3249
     11 C6          1.1778    0.9569   -0.7824 C.ar      1 <0>        -0.0133
     12 C7          1.0004   -1.4075   -0.3178 C.ar      1 <0>        -0.0548
     13 C8          2.5076    0.9398   -0.3614 C.ar      1 <0>         0.1585
     14 C9          2.3301   -1.4245    0.1031 C.ar      1 <0>        -0.0163
     15 C10         3.0836   -0.2509    0.0814 C.ar      1 <0>         0.1582
     16 H1         -1.2233   -1.1591   -1.6962 H         1 <0>         0.0336
     17 H2         -1.0891    0.5501   -2.0119 H         1 <0>         0.0336
     18 H3         -2.2737   -1.9861    0.5239 H         1 <0>         0.0253
     19 H4         -2.8486   -0.8088    1.7147 H         1 <0>         0.0253
     20 H5         -1.1266   -1.0789    1.5135 H         1 <0>         0.0253
     21 H6         -4.0926    0.2291   -0.0011 H         1 <0>         0.1192
     22 H7         -3.5692   -0.7839   -1.1644 H         1 <0>         0.1192
     23 H8          0.7337    1.8864   -1.1281 H         1 <0>         0.0658
     24 H9          0.4237   -2.3275   -0.3004 H         1 <0>         0.0621
     25 H10         2.7666   -2.3592    0.4450 H         1 <0>         0.0655
     26 H11        -0.9496    2.3074    2.0712 H         1 <0>         0.2951
     27 H12         4.1294    1.8967   -0.0620 H         1 <0>         0.2923
     28 H13         4.6068   -1.1862    0.7668 H         1 <0>         0.2923
@<TRIPOS>BOND
     1    1   10 1
     2    1   26 1
     3    2   10 2
     4    3   13 1
     5    3   27 1
     6    4   15 1
     7    4   28 1
     8    5    6 1
     9    5   21 1
    10    5   22 1
    11    6    7 1
    12    6    9 1
    13    6   10 1
    14    7    8 1
    15    7   16 1
    16    7   17 1
    17    8   11 ar
    18    8   12 ar
    19    9   18 1
    20    9   19 1
    21    9   20 1
    22   11   13 ar
    23   11   23 1
    24   12   14 ar
    25   12   24 1
    26   13   15 ar
    27   14   15 ar
    28   14   25 1
