@<TRIPOS>MOLECULE
DB00157
   73    77     0     0     0
SMALL
USER_CHARGES

@<TRIPOS>ATOM
      1 P1         -3.9771   -1.1744   -1.9549 P.3       1 <0>         0.4835
      2 P2         -3.6400    1.7346   -2.2402 P.3       1 <0>         0.4835
      3 O1          0.7055   -3.0138   -1.7485 O.3       1 <0>        -0.3456
      4 O2         -0.8447    3.3222    0.6369 O.3       1 <0>        -0.3476
      5 O3         -0.3738   -4.4607    0.7090 O.3       1 <0>        -0.3864
      6 O4          1.1100   -2.4508    1.7786 O.3       1 <0>        -0.3847
      7 O5          1.7947    4.2395   -0.4412 O.3       1 <0>        -0.3864
      8 O6          2.4910    2.0837    1.0755 O.3       1 <0>        -0.3849
      9 O7         -2.8441   -2.2207   -1.4649 O.3       1 <0>        -0.2837
     10 O8         -2.5636    2.6756   -1.4834 O.3       1 <0>        -0.2837
     11 O9         -3.3726    0.2795   -1.5888 O.3       1 <0>        -0.1861
     12 O10        -3.8922   -1.2152   -3.5700 O.3       1 <0>        -0.3022
     13 O11        -3.0391    1.5801   -3.7341 O.3       1 <0>        -0.3022
     14 O12        -5.3491   -1.4279   -1.4003 O.2       1 <0>        -0.2269
     15 O13        -5.0670    2.1951   -2.1754 O.2       1 <0>        -0.2269
     16 O14        -3.3928   -1.7889    2.1506 O.2       1 <0>        -0.2707
     17 N1          2.5041   -1.6741   -0.9740 N.pl3     1 <0>        -0.2855
     18 N2         -0.3960    1.7313    2.3360 N.pl3     1 <0>        -0.2846
     19 N3          3.3885    0.0924   -2.0071 N.2       1 <0>        -0.2306
     20 N4          4.3729   -2.3067    0.4432 N.2       1 <0>        -0.2159
     21 N5          6.2746   -0.8113    0.1222 N.2       1 <0>        -0.2188
     22 N6          6.2215    1.0236   -1.4132 N.pl3     1 <0>        -0.3413
     23 N7         -4.3874    0.2906    2.0166 N.am      1 <0>        -0.3256
     24 C1         -0.6344   -3.1470    0.2148 C.3       1 <0>         0.1135
     25 C2          0.5613   -2.2567    0.4910 C.3       1 <0>         0.1285
     26 C3         -0.6613   -3.1915   -1.3099 C.3       1 <0>         0.1134
     27 C4          1.5215   -2.6909   -0.6061 C.3       1 <0>         0.1667
     28 C5          1.0968    3.0181   -0.6830 C.3       1 <0>         0.1133
     29 C6          1.1887    2.1120    0.5265 C.3       1 <0>         0.1265
     30 C7         -0.3918    3.3308   -0.7341 C.3       1 <0>         0.1132
     31 C8          0.1708    2.7334    1.4696 C.3       1 <0>         0.1574
     32 C9         -1.5093   -2.0847   -1.9210 C.3       1 <0>         0.0879
     33 C10        -1.1988    2.2963   -1.5071 C.3       1 <0>         0.0879
     34 C11         3.7696   -1.5401   -0.4778 C.2       1 <0>         0.1674
     35 C12        -1.5524    1.0234    1.9789 C.2       1 <0>         0.0071
     36 C13         2.3223   -0.6712   -1.8892 C.cat     1 <0>         0.1004
     37 C14         0.1391    1.4736    3.6045 C.2       1 <0>        -0.0049
     38 C15         4.3007   -0.4393   -1.1306 C.2       1 <0>         0.1473
     39 C16        -2.1415    0.1095    2.7680 C.2       1 <0>         0.0318
     40 C17        -1.5930   -0.2265    4.1321 C.3       1 <0>        -0.0019
     41 C18        -0.3635    0.5828    4.4758 C.2       1 <0>        -0.0654
     42 C19         5.6040   -0.0807   -0.8010 C.2       1 <0>         0.1472
     43 C20        -3.3454   -0.5667    2.2885 C.2       1 <0>         0.2390
     44 C21         5.6269   -1.8633    0.6787 C.2       1 <0>         0.1205
     45 H1         -1.5513   -2.7940    0.6879 H         1 <0>         0.0647
     46 H2          0.2841   -1.2029    0.3782 H         1 <0>         0.0665
     47 H3         -1.0098   -4.1657   -1.6715 H         1 <0>         0.0647
     48 H4          2.0835   -3.5915   -0.3301 H         1 <0>         0.0866
     49 H5          1.5036    2.5722   -1.5948 H         1 <0>         0.0647
     50 H6          0.9058    1.0898    0.2534 H         1 <0>         0.0663
     51 H7         -0.5976    4.3329   -1.1269 H         1 <0>         0.0647
     52 H8          0.6157    3.5468    2.0572 H         1 <0>         0.0840
     53 H9         -1.1230   -1.0971   -1.6503 H         1 <0>         0.0592
     54 H10        -1.4803   -2.1537   -3.0138 H         1 <0>         0.0592
     55 H11        -0.8468    2.2671   -2.5424 H         1 <0>         0.0592
     56 H12        -1.0943    1.2985   -1.0748 H         1 <0>         0.0592
     57 H13        -1.1411   -5.0134    0.4817 H         1 <0>         0.2100
     58 H14         0.4108   -2.2533    2.4249 H         1 <0>         0.2101
     59 H15         1.6769    4.8017   -1.2258 H         1 <0>         0.2100
     60 H16         3.0981    1.7962    0.3728 H         1 <0>         0.2101
     61 H17        -1.9485    1.2530    0.9998 H         1 <0>         0.0788
     62 H18         1.3974   -0.5367   -2.4333 H         1 <0>         0.1030
     63 H19         1.0211    2.0582    3.8410 H         1 <0>         0.0781
     64 H20        -1.3351   -1.2910    4.1718 H         1 <0>         0.0358
     65 H21        -2.3615   -0.0374    4.8905 H         1 <0>         0.0358
     66 H22         0.1082    0.4326    5.4410 H         1 <0>         0.0588
     67 H23         6.1935   -2.4254    1.4135 H         1 <0>         0.1048
     68 H24        -4.5771   -0.7464   -4.0928 H         1 <0>         0.2220
     69 H25        -2.1590    1.1677   -3.8634 H         1 <0>         0.2220
     70 H26         7.1689    1.2645   -1.1564 H         1 <0>         0.1438
     71 H27         5.7225    1.5710   -2.1015 H         1 <0>         0.1438
     72 H28        -5.2741   -0.0640    1.6737 H         1 <0>         0.1452
     73 H29        -4.3242    1.2953    2.1491 H         1 <0>         0.1452
@<TRIPOS>BOND
     1    1    9 1
     2    1   11 1
     3    1   12 1
     4    1   14 2
     5    2   10 1
     6    2   11 1
     7    2   13 1
     8    2   15 2
     9    3   26 1
    10    3   27 1
    11    4   30 1
    12    4   31 1
    13    5   24 1
    14    5   57 1
    15    6   25 1
    16    6   58 1
    17    7   28 1
    18    7   59 1
    19    8   29 1
    20    8   60 1
    21    9   32 1
    22   10   33 1
    23   12   68 1
    24   13   69 1
    25   16   43 2
    26   17   27 1
    27   17   34 1
    28   17   36 2
    29   18   31 1
    30   18   35 1
    31   18   37 1
    32   19   36 1
    33   19   38 2
    34   20   34 2
    35   20   44 1
    36   21   42 1
    37   21   44 2
    38   22   42 1
    39   22   70 1
    40   22   71 1
    41   23   43 am
    42   23   72 1
    43   23   73 1
    44   24   25 1
    45   24   26 1
    46   24   45 1
    47   25   27 1
    48   25   46 1
    49   26   32 1
    50   26   47 1
    51   27   48 1
    52   28   29 1
    53   28   30 1
    54   28   49 1
    55   29   31 1
    56   29   50 1
    57   30   33 1
    58   30   51 1
    59   31   52 1
    60   32   53 1
    61   32   54 1
    62   33   55 1
    63   33   56 1
    64   34   38 1
    65   35   39 2
    66   35   61 1
    67   36   62 1
    68   37   41 2
    69   37   63 1
    70   38   42 2
    71   39   40 1
    72   39   43 1
    73   40   41 1
    74   40   64 1
    75   40   65 1
    76   41   66 1
    77   44   67 1
