@<TRIPOS>MOLECULE
DB00998
   35    37     0     0     0
SMALL
USER_CHARGES

@<TRIPOS>ATOM
      1 O1          5.6716    1.0257   -0.0258 O.2       1 <0>        -0.2704
      2 N1          0.4306   -2.5715   -0.1208 N.pl3     1 <0>        -0.3577
      3 N2         -3.6877    1.1787    0.2061 N.3       1 <0>        -0.3159
      4 N3          4.0148    2.5996    0.1656 N.am      1 <0>        -0.3253
      5 C1         -2.7007    0.1797   -0.2012 C.3       1 <0>         0.0117
      6 C2         -1.2759    0.6437    0.1912 C.3       1 <0>        -0.0100
      7 C3         -3.0479   -1.1916    0.4261 C.3       1 <0>        -0.0319
      8 C4         -0.2951   -0.4728    0.0584 C.2       1 <0>        -0.0176
      9 C5         -2.0828   -2.3004   -0.0383 C.3       1 <0>        -0.0108
     10 C6         -0.6865   -1.7927   -0.0228 C.cat     1 <0>         0.0203
     11 C7          1.1275   -0.4477    0.0172 C.ar      1 <0>         0.0039
     12 C8          1.5557   -1.7750   -0.0970 C.ar      1 <0>         0.0470
     13 C9          2.0974    0.5739    0.0677 C.ar      1 <0>        -0.0402
     14 C10         2.9085   -2.1270   -0.1665 C.ar      1 <0>        -0.0371
     15 C11         3.4534    0.2345   -0.0003 C.ar      1 <0>         0.0372
     16 C12        -3.4314    2.4527   -0.4476 C.3       1 <0>        -0.0155
     17 C13         3.8505   -1.0958   -0.1162 C.ar      1 <0>        -0.0477
     18 C14         4.4581    1.2856    0.0495 C.2       1 <0>         0.2416
     19 H1         -2.7486    0.0542   -1.2924 H         1 <0>         0.0463
     20 H2         -1.2570    0.9938    1.2316 H         1 <0>         0.0329
     21 H3         -0.9482    1.4724   -0.4471 H         1 <0>         0.0329
     22 H4         -4.0742   -1.4836    0.1716 H         1 <0>         0.0284
     23 H5         -3.0028   -1.1129    1.5211 H         1 <0>         0.0284
     24 H6         -2.3415   -2.6041   -1.0598 H         1 <0>         0.0328
     25 H7         -2.1893   -3.1788    0.6074 H         1 <0>         0.0328
     26 H8          0.4365   -3.5792   -0.2008 H         1 <0>         0.1656
     27 H9         -3.6678    1.3029    1.2178 H         1 <0>         0.1219
     28 H10         1.7284    1.5867    0.1573 H         1 <0>         0.0632
     29 H11         3.2193   -3.1628   -0.2555 H         1 <0>         0.0638
     30 H12        -2.5520    2.9641   -0.0449 H         1 <0>         0.0388
     31 H13        -4.2867    3.1143   -0.2737 H         1 <0>         0.0388
     32 H14        -3.3281    2.3447   -1.5325 H         1 <0>         0.0388
     33 H15         4.9032   -1.3639   -0.1695 H         1 <0>         0.0626
     34 H16         3.0515    2.9016    0.2289 H         1 <0>         0.1453
     35 H17         4.6968    3.3511    0.1952 H         1 <0>         0.1453
@<TRIPOS>BOND
     1    1   18 2
     2    2   10 1
     3    2   12 2
     4    2   26 1
     5    3    5 1
     6    3   16 1
     7    3   27 1
     8    4   18 am
     9    4   34 1
    10    4   35 1
    11    5    6 1
    12    5    7 1
    13    5   19 1
    14    6    8 1
    15    6   20 1
    16    6   21 1
    17    7    9 1
    18    7   22 1
    19    7   23 1
    20    8   10 1
    21    8   11 2
    22    9   10 1
    23    9   24 1
    24    9   25 1
    25   11   12 ar
    26   11   13 ar
    27   12   14 ar
    28   13   15 ar
    29   13   28 1
    30   14   17 ar
    31   14   29 1
    32   15   17 ar
    33   15   18 1
    34   16   30 1
    35   16   31 1
    36   16   32 1
    37   17   33 1
