@<TRIPOS>MOLECULE
DB00783
   44    47     0     0     0
SMALL
USER_CHARGES

@<TRIPOS>ATOM
      1 O1         -4.5678    1.3449   -0.2331 O.3       1 <0>        -0.3912
      2 O2          6.3137    0.0045   -0.4606 O.3       1 <0>        -0.5068
      3 C1         -2.1885    0.7062   -0.1227 C.3       1 <0>        -0.0030
      4 C2         -1.5446   -0.5885    0.4130 C.3       1 <0>        -0.0298
      5 C3         -0.0818   -0.7228   -0.0092 C.3       1 <0>        -0.0305
      6 C4          0.7205    0.4751    0.5838 C.3       1 <0>        -0.0125
      7 C5         -3.6228    0.5069    0.4034 C.3       1 <0>         0.0609
      8 C6         -1.4388    1.8983    0.4841 C.3       1 <0>        -0.0445
      9 C7         -2.5412   -1.6728    0.0127 C.3       1 <0>        -0.0470
     10 C8          0.0733    1.8319    0.1954 C.3       1 <0>        -0.0454
     11 C9         -3.9123   -0.9841    0.1406 C.3       1 <0>        -0.0261
     12 C10         0.5505   -2.0307    0.4702 C.3       1 <0>        -0.0454
     13 C11        -2.1948    0.8382   -1.6673 C.3       1 <0>        -0.0569
     14 C12         2.2089    0.3543    0.2681 C.ar      1 <0>        -0.0406
     15 C13         1.9578   -2.1660   -0.1037 C.3       1 <0>        -0.0270
     16 C14         2.7825   -0.9053   -0.0122 C.ar      1 <0>        -0.0405
     17 C15         3.0600    1.4716    0.3357 C.ar      1 <0>        -0.0546
     18 C16         4.1617   -1.0059   -0.2675 C.ar      1 <0>        -0.0167
     19 C17         4.4298    1.3561    0.0891 C.ar      1 <0>        -0.0199
     20 C18         4.9803    0.1184   -0.2173 C.ar      1 <0>         0.1171
     21 H1         -1.5571   -0.5566    1.5155 H         1 <0>         0.0310
     22 H2         -0.0131   -0.7059   -1.1046 H         1 <0>         0.0310
     23 H3          0.6570    0.4066    1.6810 H         1 <0>         0.0352
     24 H4         -3.6687    0.7043    1.4819 H         1 <0>         0.0599
     25 H5         -1.5816    1.9148    1.5726 H         1 <0>         0.0272
     26 H6         -1.8447    2.8447    0.1069 H         1 <0>         0.0272
     27 H7         -2.4757   -2.5506    0.6634 H         1 <0>         0.0269
     28 H8         -2.3769   -2.0099   -1.0167 H         1 <0>         0.0269
     29 H9          0.2617    2.0427   -0.8641 H         1 <0>         0.0271
     30 H10         0.5418    2.6491    0.7562 H         1 <0>         0.0271
     31 H11        -4.5097   -1.1351   -0.7656 H         1 <0>         0.0290
     32 H12        -4.4849   -1.4073    0.9733 H         1 <0>         0.0290
     33 H13        -0.0430   -2.8972    0.1581 H         1 <0>         0.0271
     34 H14         0.5906   -2.0495    1.5670 H         1 <0>         0.0271
     35 H15        -2.6702    1.7780   -1.9717 H         1 <0>         0.0236
     36 H16        -1.1892    0.8413   -2.0959 H         1 <0>         0.0236
     37 H17        -2.7458    0.0275   -2.1545 H         1 <0>         0.0236
     38 H18         1.8859   -2.4442   -1.1631 H         1 <0>         0.0313
     39 H19         2.4705   -2.9840    0.4167 H         1 <0>         0.0313
     40 H20        -5.4482    1.0931    0.0940 H         1 <0>         0.2098
     41 H21         2.6771    2.4555    0.5892 H         1 <0>         0.0622
     42 H22         4.5983   -1.9738   -0.5051 H         1 <0>         0.0657
     43 H23         5.0546    2.2437    0.1446 H         1 <0>         0.0654
     44 H24         6.7248    0.8826   -0.3818 H         1 <0>         0.2921
@<TRIPOS>BOND
     1    1    7 1
     2    1   40 1
     3    2   20 1
     4    2   44 1
     5    3    4 1
     6    3    7 1
     7    3    8 1
     8    3   13 1
     9    4    5 1
    10    4    9 1
    11    4   21 1
    12    5    6 1
    13    5   12 1
    14    5   22 1
    15    6   10 1
    16    6   14 1
    17    6   23 1
    18    7   11 1
    19    7   24 1
    20    8   10 1
    21    8   25 1
    22    8   26 1
    23    9   11 1
    24    9   27 1
    25    9   28 1
    26   10   29 1
    27   10   30 1
    28   11   31 1
    29   11   32 1
    30   12   15 1
    31   12   33 1
    32   12   34 1
    33   13   35 1
    34   13   36 1
    35   13   37 1
    36   14   16 ar
    37   14   17 ar
    38   15   16 1
    39   15   38 1
    40   15   39 1
    41   16   18 ar
    42   17   19 ar
    43   17   41 1
    44   18   20 ar
    45   18   42 1
    46   19   20 ar
    47   19   43 1
