@<TRIPOS>MOLECULE
DB00495
   32    33     0     0     0
SMALL
USER_CHARGES

@<TRIPOS>ATOM
      1 O1         -0.9863    0.1528   -1.1721 O.3       1 <0>        -0.3486
      2 O2         -1.3679    2.9025   -0.8651 O.3       1 <0>        -0.3924
      3 O3          1.1545   -3.3144   -0.5116 O.2       1 <0>        -0.2464
      4 O4          4.8841   -0.7198    0.2012 O.2       1 <0>        -0.2674
      5 N1          0.8591   -1.0060   -0.3206 N.am      1 <0>        -0.2737
      6 N2         -3.5295   -1.3073   -0.1624 N.2       1 <0>         0.0825
      7 N3          3.0062   -2.0085   -0.1554 N.am      1 <0>        -0.2747
      8 N4         -4.7363   -1.0419   -0.0357 N.1       1 <0>        -0.0144
      9 N5         -5.8472   -0.8072    0.0743 N.1       1 <0>        -0.3282
     10 C1         -2.6021   -0.3763    0.4929 C.3       1 <0>         0.1617
     11 C2         -0.5625   -1.0397   -0.4989 C.3       1 <0>         0.1420
     12 C3         -1.3166   -1.1003    0.8174 C.3       1 <0>         0.0244
     13 C4         -2.1571    0.6748   -0.5163 C.3       1 <0>         0.1131
     14 C5         -1.7764    1.9949    0.1428 C.3       1 <0>         0.0727
     15 C6          1.4777    0.2245   -0.1233 C.2       1 <0>         0.0199
     16 C7          1.6313   -2.1903   -0.3421 C.2       1 <0>         0.3313
     17 C8          2.7934    0.3948    0.0552 C.2       1 <0>         0.0302
     18 C9          3.6691   -0.8070    0.0441 C.2       1 <0>         0.2568
     19 C10         3.4339    1.7292    0.2655 C.3       1 <0>        -0.0332
     20 H1         -3.0627    0.0526    1.3912 H         1 <0>         0.0643
     21 H2         -0.8367   -1.8908   -1.1336 H         1 <0>         0.0840
     22 H3         -0.7802   -0.5547    1.6041 H         1 <0>         0.0332
     23 H4         -1.4549   -2.1282    1.1682 H         1 <0>         0.0332
     24 H5         -2.9066    0.8621   -1.2939 H         1 <0>         0.0643
     25 H6         -0.9631    1.8919    0.8661 H         1 <0>         0.0584
     26 H7         -2.6375    2.4297    0.6599 H         1 <0>         0.0584
     27 H8          0.8434    1.0987   -0.1061 H         1 <0>         0.0816
     28 H9          3.5791   -2.8477   -0.1677 H         1 <0>         0.1734
     29 H10        -0.6215    2.4998   -1.3407 H         1 <0>         0.2095
     30 H11         3.9484    1.7583    1.2314 H         1 <0>         0.0280
     31 H12         2.7003    2.5421    0.2551 H         1 <0>         0.0280
     32 H13         4.1649    1.9312   -0.5243 H         1 <0>         0.0280
@<TRIPOS>BOND
     1    1   11 1
     2    1   13 1
     3    2   14 1
     4    2   29 1
     5    3   16 2
     6    4   18 2
     7    5   11 1
     8    5   15 1
     9    5   16 am
    10    6    8 2
    11    6   10 1
    12    7   16 am
    13    7   18 am
    14    7   28 1
    15    8    9 2
    16   10   12 1
    17   10   13 1
    18   10   20 1
    19   11   12 1
    20   11   21 1
    21   12   22 1
    22   12   23 1
    23   13   14 1
    24   13   24 1
    25   14   25 1
    26   14   26 1
    27   15   17 2
    28   15   27 1
    29   17   18 1
    30   17   19 1
    31   19   30 1
    32   19   31 1
    33   19   32 1
