@<TRIPOS>MOLECULE
DB00322
   28    29     0     0     0
SMALL
USER_CHARGES

@<TRIPOS>ATOM
      1 F1          2.7685   -2.7302   -0.4029 F         1 <0>        -0.1983
      2 O1         -0.8685   -0.0824    1.2436 O.3       1 <0>        -0.3483
      3 O2         -2.9023    2.0188    0.3376 O.3       1 <0>        -0.3890
      4 O3         -1.9465   -2.6329    0.8111 O.3       1 <0>        -0.3924
      5 O4          2.2173    2.5670    0.5351 O.2       1 <0>        -0.2464
      6 O5          4.9136   -1.0600   -0.4005 O.2       1 <0>        -0.2646
      7 N1          1.2096    0.4684    0.3201 N.am      1 <0>        -0.2712
      8 N2          3.5588    0.7614    0.0704 N.am      1 <0>        -0.2725
      9 C1         -2.2999    0.9272   -0.3543 C.3       1 <0>         0.0876
     10 C2         -0.1224    0.9384    0.5658 C.3       1 <0>         0.1423
     11 C3         -0.8735    1.2759   -0.7118 C.3       1 <0>         0.0214
     12 C4         -2.1392   -0.2579    0.5877 C.3       1 <0>         0.1100
     13 C5         -2.1091   -1.5947   -0.1417 C.3       1 <0>         0.0729
     14 C6          2.3128    1.3557    0.3255 C.2       1 <0>         0.3315
     15 C7          1.3994   -0.8854    0.0738 C.2       1 <0>         0.0524
     16 C8          2.5961   -1.4174   -0.1652 C.2       1 <0>         0.2036
     17 C9          3.8062   -0.5814   -0.1812 C.2       1 <0>         0.2894
     18 H1         -2.9234    0.7044   -1.2251 H         1 <0>         0.0621
     19 H2         -0.0913    1.8124    1.2272 H         1 <0>         0.0840
     20 H3         -0.5377    0.6470   -1.5451 H         1 <0>         0.0335
     21 H4         -0.7265    2.3218   -0.9995 H         1 <0>         0.0335
     22 H5         -2.9040   -0.2729    1.3721 H         1 <0>         0.0646
     23 H6         -1.3077   -1.6619   -0.8807 H         1 <0>         0.0584
     24 H7         -3.0601   -1.7585   -0.6598 H         1 <0>         0.0584
     25 H8         -2.9334    2.7713   -0.2776 H         1 <0>         0.2099
     26 H9          0.5453   -1.5417    0.0841 H         1 <0>         0.0842
     27 H10         4.3643    1.3811    0.0697 H         1 <0>         0.1735
     28 H11        -1.9463   -3.4731    0.3216 H         1 <0>         0.2095
@<TRIPOS>BOND
     1    1   16 1
     2    2   10 1
     3    2   12 1
     4    3    9 1
     5    3   25 1
     6    4   13 1
     7    4   28 1
     8    5   14 2
     9    6   17 2
    10    7   10 1
    11    7   14 am
    12    7   15 1
    13    8   14 am
    14    8   17 am
    15    8   27 1
    16    9   11 1
    17    9   12 1
    18    9   18 1
    19   10   11 1
    20   10   19 1
    21   11   20 1
    22   11   21 1
    23   12   13 1
    24   12   22 1
    25   13   23 1
    26   13   24 1
    27   15   16 2
    28   15   26 1
    29   16   17 1
