@<TRIPOS>MOLECULE
DB00528
   86    89     0     0     0
SMALL
USER_CHARGES

@<TRIPOS>ATOM
      1 O1          0.8730   -1.7325    0.2421 O.3       1 <0>        -0.4540
      2 O2          1.6001   -2.3257   -1.8743 O.2       1 <0>        -0.2452
      3 O3          2.5283    2.5536    1.9743 O.3       1 <0>        -0.4646
      4 O4          3.9438    3.7391    0.5775 O.2       1 <0>        -0.2452
      5 O5          7.7119   -1.9934    1.2972 O.3       1 <0>        -0.5760
      6 O6          5.9330   -1.8193    2.5718 O.2       1 <0>         0.0414
      7 N1         -1.7657   -3.2562   -0.1369 N.3       1 <0>        -0.3016
      8 N2          1.0109    2.0144   -2.1993 N.pl3     1 <0>        -0.3207
      9 N3          6.5313   -1.6132    1.4883 N.pl3     1 <0>         0.0796
     10 C1          0.6437   -3.1073    0.5679 C.3       1 <0>         0.1208
     11 C2         -0.3908   -3.6284   -0.4470 C.3       1 <0>         0.0381
     12 C3         -2.0334   -1.8782   -0.5528 C.3       1 <0>        -0.0004
     13 C4         -3.2422   -1.3213    0.2079 C.3       1 <0>        -0.0293
     14 C5         -3.5846    0.1347   -0.2041 C.3       1 <0>         0.0104
     15 C6          2.4585    0.6405   -0.1866 C.3       1 <0>         0.0508
     16 C7          1.9831   -3.8418    0.4592 C.3       1 <0>        -0.0239
     17 C8          0.1136   -3.1659    2.0034 C.3       1 <0>        -0.0239
     18 C9          1.5293   -0.0596   -1.1834 C.2       1 <0>         0.0652
     19 C10        -2.7064   -4.1730   -0.7833 C.3       1 <0>        -0.0126
     20 C11        -5.0348    0.5131    0.0817 C.ar      1 <0>        -0.0399
     21 C12        -2.6224    1.1722    0.3603 C.ar      1 <0>        -0.0399
     22 C13         2.3915    2.1680   -0.2828 C.2       1 <0>         0.0651
     23 C14         1.3480   -1.5097   -1.0070 C.2       1 <0>         0.3381
     24 C15         0.8784    0.6364   -2.1429 C.2       1 <0>         0.0157
     25 C16         3.8720    0.1757   -0.3890 C.ar      1 <0>        -0.0287
     26 C17         1.7077    2.7785   -1.2769 C.2       1 <0>         0.0157
     27 C18        -5.6826    1.4502   -0.7234 C.ar      1 <0>        -0.0580
     28 C19        -2.3749    2.3500   -0.3448 C.ar      1 <0>        -0.0580
     29 C20        -5.7129   -0.0775    1.1479 C.ar      1 <0>        -0.0580
     30 C21        -1.9888    0.9445    1.5818 C.ar      1 <0>        -0.0580
     31 C22        -0.0136    0.0399   -3.1979 C.3       1 <0>        -0.0260
     32 C23         4.5391   -0.4965    0.6350 C.ar      1 <0>         0.0197
     33 C24         4.5178    0.4162   -1.6018 C.ar      1 <0>        -0.0572
     34 C25         3.0624    2.9259    0.7860 C.2       1 <0>         0.3373
     35 C26         1.6199    4.2657   -1.4899 C.3       1 <0>        -0.0260
     36 C27         5.8519   -0.9284    0.4463 C.ar      1 <0>         0.2734
     37 C28        -7.0083    1.7963   -0.4623 C.ar      1 <0>        -0.0615
     38 C29        -1.4941    3.3001    0.1717 C.ar      1 <0>        -0.0615
     39 C30        -7.0387    0.2686    1.4090 C.ar      1 <0>        -0.0615
     40 C31        -1.1078    1.8947    2.0983 C.ar      1 <0>        -0.0615
     41 C32         5.8306   -0.0156   -1.7906 C.ar      1 <0>        -0.0551
     42 C33        -7.6864    1.2056    0.6038 C.ar      1 <0>        -0.0617
     43 C34        -0.8605    3.0725    1.3933 C.ar      1 <0>        -0.0617
     44 C35         6.4976   -0.6879   -0.7665 C.ar      1 <0>         0.0156
     45 C36         3.0813    3.2093    3.1201 C.3       1 <0>         0.0820
     46 H1         -0.3281   -4.7241   -0.3612 H         1 <0>         0.0465
     47 H2         -0.1961   -3.4373   -1.5036 H         1 <0>         0.0465
     48 H3         -1.2129   -1.2065   -0.3180 H         1 <0>         0.0427
     49 H4         -2.1881   -1.8110   -1.6374 H         1 <0>         0.0427
     50 H5         -3.1202   -1.4610    1.2864 H         1 <0>         0.0287
     51 H6         -4.1092   -1.9377   -0.0630 H         1 <0>         0.0287
     52 H7         -3.4767    0.1576   -1.2997 H         1 <0>         0.0398
     53 H8          2.1112    0.3678    0.8193 H         1 <0>         0.0451
     54 H9          2.2932   -4.0559   -0.5666 H         1 <0>         0.0268
     55 H10         2.7886   -3.2681    0.9315 H         1 <0>         0.0268
     56 H11         1.9248   -4.8152    0.9606 H         1 <0>         0.0268
     57 H12        -0.1883   -4.1808    2.2819 H         1 <0>         0.0268
     58 H13        -0.7298   -2.4850    2.1605 H         1 <0>         0.0268
     59 H14         0.8884   -2.8370    2.7065 H         1 <0>         0.0268
     60 H15        -2.5140   -5.2051   -0.4668 H         1 <0>         0.0391
     61 H16        -2.6364   -4.1369   -1.8768 H         1 <0>         0.0391
     62 H17        -3.7420   -3.9703   -0.4955 H         1 <0>         0.0391
     63 H18         0.5123    2.5032   -2.9343 H         1 <0>         0.1516
     64 H19        -5.1750    1.9124   -1.5652 H         1 <0>         0.0620
     65 H20        -2.8503    2.5405   -1.3026 H         1 <0>         0.0620
     66 H21        -5.2361   -0.7953    1.8077 H         1 <0>         0.0620
     67 H22        -2.1641    0.0604    2.1826 H         1 <0>         0.0620
     68 H23         0.4132    0.2123   -4.1918 H         1 <0>         0.0290
     69 H24        -0.1697   -1.0351   -3.0860 H         1 <0>         0.0290
     70 H25        -1.0024    0.5110   -3.1626 H         1 <0>         0.0290
     71 H26         4.0174   -0.6746    1.5726 H         1 <0>         0.0688
     72 H27         4.0216    0.9373   -2.4159 H         1 <0>         0.0621
     73 H28         0.6110    4.5581   -1.7995 H         1 <0>         0.0290
     74 H29         1.8496    4.8373   -0.5864 H         1 <0>         0.0290
     75 H30         2.3153    4.5710   -2.2784 H         1 <0>         0.0290
     76 H31        -7.5135    2.5241   -1.0906 H         1 <0>         0.0618
     77 H32        -1.3108    4.2213   -0.3723 H         1 <0>         0.0618
     78 H33        -7.5657   -0.1878    2.2419 H         1 <0>         0.0618
     79 H34        -0.6174    1.7207    3.0517 H         1 <0>         0.0618
     80 H35         6.3330    0.1716   -2.7351 H         1 <0>         0.0620
     81 H36        -8.7185    1.4755    0.8075 H         1 <0>         0.0618
     82 H37        -0.1787    3.8152    1.7973 H         1 <0>         0.0618
     83 H38         7.5197   -1.0097   -0.9494 H         1 <0>         0.0685
     84 H39         2.5674    2.8316    4.0080 H         1 <0>         0.0661
     85 H40         2.9194    4.2894    3.0536 H         1 <0>         0.0661
     86 H41         4.1480    2.9820    3.2078 H         1 <0>         0.0661
@<TRIPOS>BOND
     1    1   10 1
     2    1   23 1
     3    2   23 2
     4    3   34 1
     5    3   45 1
     6    4   34 2
     7    5    9 1
     8    6    9 2
     9    7   11 1
    10    7   12 1
    11    7   19 1
    12    8   24 1
    13    8   26 1
    14    8   63 1
    15    9   36 1
    16   10   11 1
    17   10   16 1
    18   10   17 1
    19   11   46 1
    20   11   47 1
    21   12   13 1
    22   12   48 1
    23   12   49 1
    24   13   14 1
    25   13   50 1
    26   13   51 1
    27   14   20 1
    28   14   21 1
    29   14   52 1
    30   15   18 1
    31   15   22 1
    32   15   25 1
    33   15   53 1
    34   16   54 1
    35   16   55 1
    36   16   56 1
    37   17   57 1
    38   17   58 1
    39   17   59 1
    40   18   23 1
    41   18   24 2
    42   19   60 1
    43   19   61 1
    44   19   62 1
    45   20   27 ar
    46   20   29 ar
    47   21   28 ar
    48   21   30 ar
    49   22   26 2
    50   22   34 1
    51   24   31 1
    52   25   32 ar
    53   25   33 ar
    54   26   35 1
    55   27   37 ar
    56   27   64 1
    57   28   38 ar
    58   28   65 1
    59   29   39 ar
    60   29   66 1
    61   30   40 ar
    62   30   67 1
    63   31   68 1
    64   31   69 1
    65   31   70 1
    66   32   36 ar
    67   32   71 1
    68   33   41 ar
    69   33   72 1
    70   35   73 1
    71   35   74 1
    72   35   75 1
    73   36   44 ar
    74   37   42 ar
    75   37   76 1
    76   38   43 ar
    77   38   77 1
    78   39   42 ar
    79   39   78 1
    80   40   43 ar
    81   40   79 1
    82   41   44 ar
    83   41   80 1
    84   42   81 1
    85   43   82 1
    86   44   83 1
    87   45   84 1
    88   45   85 1
    89   45   86 1
