@<TRIPOS>MOLECULE
DB00690
   50    52     0     0     0
SMALL
USER_CHARGES

@<TRIPOS>ATOM
      1 Cl1        -2.7009   -3.8470    2.9674 Cl        1 <0>        -0.0835
      2 F1         -4.9984    0.7154   -1.9523 F         1 <0>        -0.2048
      3 O1          0.2902   -0.0176   -3.5059 O.2       1 <0>        -0.2732
      4 N1          0.2517   -0.9998   -1.3930 N.am      1 <0>        -0.2680
      5 N2          3.3694    0.6743   -0.1798 N.3       1 <0>        -0.3013
      6 N3         -2.5910   -0.2350   -2.1386 N.2       1 <0>        -0.2733
      7 C1          1.6842   -0.7753   -1.1990 C.3       1 <0>         0.0326
      8 C2          1.9392    0.4851   -0.3855 C.3       1 <0>         0.0151
      9 C3         -0.4835   -1.6303   -0.3305 C.ar      1 <0>         0.0456
     10 C4          3.9428   -0.4649    0.5394 C.3       1 <0>        -0.0039
     11 C5          3.6260    1.9167    0.5515 C.3       1 <0>        -0.0039
     12 C6         -1.8557   -1.3997   -0.1005 C.ar      1 <0>         0.0234
     13 C7         -0.3075   -0.6421   -2.6254 C.2       1 <0>         0.2413
     14 C8         -2.6364   -0.3758   -0.8569 C.2       1 <0>         0.0778
     15 C9         -1.7157   -1.1166   -2.8819 C.3       1 <0>         0.1170
     16 C10         0.1837   -2.5136    0.5414 C.ar      1 <0>        -0.0383
     17 C11        -2.5354   -2.0954    0.9161 C.ar      1 <0>        -0.0324
     18 C12         5.4455   -0.3116    0.7018 C.3       1 <0>        -0.0524
     19 C13         3.0395    3.1139   -0.1770 C.3       1 <0>        -0.0524
     20 C14        -3.5161    0.5629   -0.1020 C.ar      1 <0>         0.0357
     21 C15        -0.4940   -3.1858    1.5616 C.ar      1 <0>        -0.0416
     22 C16        -1.8558   -2.9862    1.7410 C.ar      1 <0>         0.0417
     23 C17        -4.6657    1.0636   -0.7012 C.ar      1 <0>         0.1325
     24 C18        -3.1751    0.9261    1.1953 C.ar      1 <0>        -0.0498
     25 C19        -5.4866    1.9406    0.0079 C.ar      1 <0>        -0.0258
     26 C20        -3.9961    1.8032    1.9041 C.ar      1 <0>        -0.0610
     27 C21        -5.1517    2.3104    1.3104 C.ar      1 <0>        -0.0590
     28 H1          2.1414   -1.6915   -0.8407 H         1 <0>         0.0481
     29 H2          2.1487   -0.6329   -2.1849 H         1 <0>         0.0481
     30 H3          1.4980    1.3104   -0.9548 H         1 <0>         0.0442
     31 H4          1.4069    0.4379    0.5737 H         1 <0>         0.0442
     32 H5          3.4740   -0.6097    1.5209 H         1 <0>         0.0424
     33 H6          3.8345   -1.3967   -0.0185 H         1 <0>         0.0424
     34 H7          3.2313    1.8792    1.5746 H         1 <0>         0.0424
     35 H8          4.7017    2.1093    0.6178 H         1 <0>         0.0424
     36 H9         -1.9290   -1.0135   -3.9516 H         1 <0>         0.0605
     37 H10        -1.8444   -2.1780   -2.6430 H         1 <0>         0.0605
     38 H11         1.2350   -2.7602    0.4482 H         1 <0>         0.0637
     39 H12        -3.6037   -1.9487    1.0638 H         1 <0>         0.0639
     40 H13         5.9311   -0.0411   -0.2422 H         1 <0>         0.0242
     41 H14         5.7112    0.4274    1.4638 H         1 <0>         0.0242
     42 H15         5.8790   -1.2637    1.0295 H         1 <0>         0.0242
     43 H16         3.2925    3.1075   -1.2429 H         1 <0>         0.0242
     44 H17         1.9526    3.1807   -0.0668 H         1 <0>         0.0242
     45 H18         3.4500    4.0369    0.2481 H         1 <0>         0.0242
     46 H19         0.0558   -3.8763    2.1964 H         1 <0>         0.0633
     47 H20        -2.2657    0.5795    1.6771 H         1 <0>         0.0625
     48 H21        -6.3862    2.3357   -0.4546 H         1 <0>         0.0646
     49 H22        -3.7315    2.0977    2.9155 H         1 <0>         0.0618
     50 H23        -5.7899    2.9949    1.8617 H         1 <0>         0.0618
@<TRIPOS>BOND
     1    1   22 1
     2    2   23 1
     3    3   13 2
     4    4    7 1
     5    4    9 1
     6    4   13 am
     7    5    8 1
     8    5   10 1
     9    5   11 1
    10    6   14 2
    11    6   15 1
    12    7    8 1
    13    7   28 1
    14    7   29 1
    15    8   30 1
    16    8   31 1
    17    9   12 ar
    18    9   16 ar
    19   10   18 1
    20   10   32 1
    21   10   33 1
    22   11   19 1
    23   11   34 1
    24   11   35 1
    25   12   14 1
    26   12   17 ar
    27   13   15 1
    28   14   20 1
    29   15   36 1
    30   15   37 1
    31   16   21 ar
    32   16   38 1
    33   17   22 ar
    34   17   39 1
    35   18   40 1
    36   18   41 1
    37   18   42 1
    38   19   43 1
    39   19   44 1
    40   19   45 1
    41   20   23 ar
    42   20   24 ar
    43   21   22 ar
    44   21   46 1
    45   23   25 ar
    46   24   26 ar
    47   24   47 1
    48   25   27 ar
    49   25   48 1
    50   26   27 ar
    51   26   49 1
    52   27   50 1
