@<TRIPOS>MOLECULE
DB00577
   43    44     0     0     0
SMALL
USER_CHARGES

@<TRIPOS>ATOM
      1 O1         -2.0039    1.6599    0.9373 O.3       1 <0>        -0.4612
      2 O2          0.6275    2.2196    0.1489 O.3       1 <0>        -0.3559
      3 O3         -3.5522    1.7080   -0.7689 O.2       1 <0>        -0.2491
      4 O4          5.6728   -1.6055    1.5916 O.2       1 <0>        -0.2633
      5 N1          2.7931    1.4248   -0.0913 N.pl3     1 <0>        -0.2922
      6 N2         -4.4651   -0.7710   -0.1258 N.3       1 <0>        -0.3182
      7 N3          2.3451   -0.9020   -0.6253 N.pl3     1 <0>        -0.3122
      8 N4          4.6280    1.1143    1.1391 N.2       1 <0>        -0.2286
      9 N5          3.9300   -2.4427    0.3136 N.2       1 <0>        -0.1756
     10 N6          2.1153   -3.1707   -1.0027 N.pl3     1 <0>        -0.3289
     11 C1         -2.0870   -1.2028    0.5508 C.3       1 <0>        -0.0211
     12 C2         -3.3201   -0.2736    0.6386 C.3       1 <0>         0.1057
     13 C3         -1.5336   -1.2570   -0.8773 C.3       1 <0>        -0.0607
     14 C4         -2.3522   -2.6258    1.0565 C.3       1 <0>        -0.0607
     15 C5         -3.0019    1.1362    0.1634 C.2       1 <0>         0.3244
     16 C6          3.0234    0.1008   -0.0614 C.2       1 <0>         0.1480
     17 C7          1.7089    2.1237   -0.7670 C.3       1 <0>         0.1268
     18 C8         -1.5941    2.9890    0.6002 C.3       1 <0>         0.1158
     19 C9          4.1459   -0.0835    0.6918 C.2       1 <0>         0.1721
     20 C10        -0.4738    2.9179   -0.4195 C.3       1 <0>         0.0840
     21 C11         3.7866    2.0082    0.6472 C.cat     1 <0>         0.1001
     22 C12         4.6662   -1.4169    0.9194 C.2       1 <0>         0.3021
     23 C13         2.8514   -2.1808   -0.4021 C.2       1 <0>         0.1952
     24 H1         -1.2956   -0.7834    1.1866 H         1 <0>         0.0316
     25 H2         -3.6391   -0.1976    1.6854 H         1 <0>         0.0577
     26 H3         -0.6434   -1.8924   -0.9114 H         1 <0>         0.0233
     27 H4         -1.2351   -0.2681   -1.2380 H         1 <0>         0.0233
     28 H5         -2.2565   -1.6779   -1.5833 H         1 <0>         0.0233
     29 H6         -2.7414   -2.6040    2.0797 H         1 <0>         0.0233
     30 H7         -3.0771   -3.1510    0.4261 H         1 <0>         0.0233
     31 H8         -1.4271   -3.2123    1.0629 H         1 <0>         0.0233
     32 H9          2.0737    3.1163   -1.0529 H         1 <0>         0.0801
     33 H10         1.4277    1.5530   -1.6582 H         1 <0>         0.0801
     34 H11        -5.2583   -0.1421   -0.0059 H         1 <0>         0.1190
     35 H12        -4.2505   -0.7742   -1.1216 H         1 <0>         0.1190
     36 H13        -2.4329    3.5951    0.2403 H         1 <0>         0.0721
     37 H14        -1.2301    3.4452    1.5269 H         1 <0>         0.0721
     38 H15        -0.8075    2.3863   -1.3176 H         1 <0>         0.0594
     39 H16        -0.1625    3.9311   -0.6964 H         1 <0>         0.0594
     40 H17         3.8506    3.0777    0.7960 H         1 <0>         0.1030
     41 H18         1.5111   -0.7685   -1.1872 H         1 <0>         0.1700
     42 H19         1.3054   -2.9569   -1.5737 H         1 <0>         0.1451
     43 H20         2.3783   -4.1462   -0.9144 H         1 <0>         0.1451
@<TRIPOS>BOND
     1    1   15 1
     2    1   18 1
     3    2   17 1
     4    2   20 1
     5    3   15 2
     6    4   22 2
     7    5   16 1
     8    5   17 1
     9    5   21 2
    10    6   12 1
    11    6   34 1
    12    6   35 1
    13    7   16 2
    14    7   23 1
    15    7   41 1
    16    8   19 2
    17    8   21 1
    18    9   22 1
    19    9   23 2
    20   10   23 1
    21   10   42 1
    22   10   43 1
    23   11   12 1
    24   11   13 1
    25   11   14 1
    26   11   24 1
    27   12   15 1
    28   12   25 1
    29   13   26 1
    30   13   27 1
    31   13   28 1
    32   14   29 1
    33   14   30 1
    34   14   31 1
    35   16   19 1
    36   17   32 1
    37   17   33 1
    38   18   20 1
    39   18   36 1
    40   18   37 1
    41   19   22 1
    42   20   38 1
    43   20   39 1
    44   21   40 1
