@<TRIPOS>MOLECULE
DB00502
   49    51     0     0     0
SMALL
USER_CHARGES

@<TRIPOS>ATOM
      1 Cl1         9.1203    0.1414   -0.2045 Cl        1 <0>        -0.0835
      2 F1         -8.7963   -1.6426   -0.2673 F         1 <0>        -0.2055
      3 O1          2.9178   -1.3615    1.3517 O.3       1 <0>        -0.3839
      4 O2         -3.2376    0.4493    1.7536 O.2       1 <0>        -0.2921
      5 N1          0.3979    0.2935   -0.6380 N.3       1 <0>        -0.3021
      6 C1          3.1277   -0.4025    0.3045 C.3       1 <0>         0.0933
      7 C2          2.3863    0.8948    0.6974 C.3       1 <0>        -0.0070
      8 C3          2.5196   -0.9378   -1.0125 C.3       1 <0>        -0.0070
      9 C4          0.8607    0.7439    0.6790 C.3       1 <0>         0.0018
     10 C5          0.9870   -1.0025   -0.9900 C.3       1 <0>         0.0018
     11 C6         -1.0625    0.2190   -0.6706 C.3       1 <0>        -0.0007
     12 C7          4.6458   -0.2649    0.1769 C.ar      1 <0>        -0.0160
     13 C8         -1.6689    1.5905   -0.3665 C.3       1 <0>        -0.0332
     14 C9          5.2550    0.9669    0.4109 C.ar      1 <0>        -0.0545
     15 C10         5.4174   -1.3715   -0.1743 C.ar      1 <0>        -0.0545
     16 C11        -3.1999    1.5658   -0.3857 C.3       1 <0>         0.0116
     17 C12         6.6392    1.0924    0.2933 C.ar      1 <0>        -0.0430
     18 C13         6.8017   -1.2459   -0.2919 C.ar      1 <0>        -0.0430
     19 C14        -3.8032    0.6676    0.6850 C.2       1 <0>         0.1632
     20 C15         7.4125   -0.0140   -0.0582 C.ar      1 <0>         0.0410
     21 C16        -5.1367    0.0512    0.4315 C.ar      1 <0>         0.0176
     22 C17        -6.0352    0.7245   -0.3657 C.ar      1 <0>        -0.0486
     23 C18        -5.4203   -1.1693    1.0029 C.ar      1 <0>        -0.0486
     24 C19        -7.2824    0.1472   -0.6040 C.ar      1 <0>        -0.0258
     25 C20        -6.6675   -1.7466    0.7643 C.ar      1 <0>        -0.0258
     26 C21        -7.5986   -1.0884   -0.0390 C.ar      1 <0>         0.1234
     27 H1          2.6440    1.7067    0.0040 H         1 <0>         0.0309
     28 H2          2.6801    1.2089    1.7076 H         1 <0>         0.0309
     29 H3          2.8811   -1.9510   -1.2264 H         1 <0>         0.0309
     30 H4          2.8346   -0.3006   -1.8503 H         1 <0>         0.0309
     31 H5          0.4955    1.7434    0.9267 H         1 <0>         0.0427
     32 H6          0.5291    0.0671    1.4761 H         1 <0>         0.0427
     33 H7          0.6502   -1.2996   -1.9911 H         1 <0>         0.0427
     34 H8          0.6549   -1.7876   -0.2986 H         1 <0>         0.0427
     35 H9         -1.3924   -0.0919   -1.6698 H         1 <0>         0.0427
     36 H10        -1.4260   -0.5340    0.0391 H         1 <0>         0.0427
     37 H11        -1.3166    2.3258   -1.1006 H         1 <0>         0.0282
     38 H12        -1.3953    1.9607    0.6249 H         1 <0>         0.0282
     39 H13         1.9707   -1.5634    1.4135 H         1 <0>         0.2106
     40 H14         4.7032    1.8557    0.6949 H         1 <0>         0.0622
     41 H15         4.9650   -2.3435   -0.3489 H         1 <0>         0.0622
     42 H16        -3.5266    1.2305   -1.3765 H         1 <0>         0.0345
     43 H17        -3.5795    2.5809   -0.2223 H         1 <0>         0.0345
     44 H18         7.1025    2.0580    0.4799 H         1 <0>         0.0632
     45 H19         7.3921   -2.1172   -0.5639 H         1 <0>         0.0632
     46 H20        -5.8205    1.6939   -0.8035 H         1 <0>         0.0625
     47 H21        -4.7029   -1.6950    1.6255 H         1 <0>         0.0625
     48 H22        -8.0093    0.6608   -1.2263 H         1 <0>         0.0646
     49 H23        -6.9137   -2.7090    1.2031 H         1 <0>         0.0646
@<TRIPOS>BOND
     1    1   20 1
     2    2   26 1
     3    3    6 1
     4    3   39 1
     5    4   19 2
     6    5    9 1
     7    5   10 1
     8    5   11 1
     9    6    7 1
    10    6    8 1
    11    6   12 1
    12    7    9 1
    13    7   27 1
    14    7   28 1
    15    8   10 1
    16    8   29 1
    17    8   30 1
    18    9   31 1
    19    9   32 1
    20   10   33 1
    21   10   34 1
    22   11   13 1
    23   11   35 1
    24   11   36 1
    25   12   14 ar
    26   12   15 ar
    27   13   16 1
    28   13   37 1
    29   13   38 1
    30   14   17 ar
    31   14   40 1
    32   15   18 ar
    33   15   41 1
    34   16   19 1
    35   16   42 1
    36   16   43 1
    37   17   20 ar
    38   17   44 1
    39   18   20 ar
    40   18   45 1
    41   19   21 1
    42   21   22 ar
    43   21   23 ar
    44   22   24 ar
    45   22   46 1
    46   23   25 ar
    47   23   47 1
    48   24   26 ar
    49   24   48 1
    50   25   26 ar
    51   25   49 1
