@<TRIPOS>MOLECULE
DB00148
   18    17     0     0     0
SMALL
USER_CHARGES

@<TRIPOS>ATOM
      1 O1          2.2717   -0.6869    1.5107 O.co2     1 <0>        -0.5466
      2 O2          2.8842    1.3636    0.7033 O.co2     1 <0>        -0.5466
      3 N1          0.1005   -0.2135   -0.1667 N.pl3     1 <0>        -0.2625
      4 N2         -2.2174    0.4888    0.1848 N.4       1 <0>        -0.3918
      5 N3         -0.5340    2.0950   -0.1184 N.2       1 <0>        -0.1321
      6 C1          1.4787   -0.0040   -0.5971 C.3       1 <0>         0.1063
      7 C2         -0.8111    0.8299   -0.0452 C.2       1 <0>         0.3491
      8 C3         -0.3365   -1.6021   -0.0650 C.3       1 <0>         0.0563
      9 C4          2.2876    0.2505    0.6638 C.2       1 <0>         0.0753
     10 H1          1.8824   -0.8876   -1.1060 H         1 <0>         0.0720
     11 H2          1.5592    0.8225   -1.3116 H         1 <0>         0.0720
     12 H3         -0.9535   -1.8707   -0.9287 H         1 <0>         0.0620
     13 H4         -0.9127   -1.7651    0.8517 H         1 <0>         0.0620
     14 H5          0.5100   -2.2968   -0.0319 H         1 <0>         0.0620
     15 H6         -2.7868    1.3441    0.1802 H         1 <0>         0.2155
     16 H7         -2.3288    0.0278    1.0958 H         1 <0>         0.2155
     17 H8         -2.5610   -0.1353   -0.5551 H         1 <0>         0.2155
     18 H9          0.4676    2.2398   -0.2645 H         1 <0>         0.3061
@<TRIPOS>BOND
     1    1    9 2
     2    2    9 1
     3    3    6 1
     4    3    7 1
     5    3    8 1
     6    4    7 1
     7    4   15 1
     8    4   16 1
     9    4   17 1
    10    5    7 2
    11    5   18 1
    12    6    9 1
    13    6   10 1
    14    6   11 1
    15    8   12 1
    16    8   13 1
    17    8   14 1
