@<TRIPOS>MOLECULE
DB00566
   16    15     0     0     0
SMALL
USER_CHARGES

@<TRIPOS>ATOM
      1 S1         -2.5904    0.6405    0.5485 S.3       1 <0>        -0.1621
      2 S2         -0.3825    1.1159   -2.1068 S.3       1 <0>        -0.1621
      3 O1          0.1768   -2.0453    0.6857 O.3       1 <0>        -0.4798
      4 O2          1.9598    0.6050    1.0761 O.3       1 <0>        -0.4798
      5 O3         -1.4981   -1.8867   -0.8399 O.2       1 <0>        -0.2497
      6 O4          2.2597    0.2176   -1.1359 O.2       1 <0>        -0.2497
      7 C1         -0.8511    0.0713    0.4893 C.3       1 <0>         0.1209
      8 C2          0.0749    0.9829   -0.3380 C.3       1 <0>         0.1209
      9 C3         -0.7918   -1.3687    0.0127 C.2       1 <0>         0.3192
     10 C4          1.5326    0.5661   -0.2152 C.2       1 <0>         0.3192
     11 H1         -0.5313    0.0797    1.5386 H         1 <0>         0.0540
     12 H2          0.0211    2.0069    0.0530 H         1 <0>         0.0540
     13 H3         -2.3409    1.8379    1.0986 H         1 <0>         0.1025
     14 H4         -0.1702   -0.1697   -2.4243 H         1 <0>         0.1025
     15 H5          0.2342   -2.9817    0.3991 H         1 <0>         0.2951
     16 H6          2.8972    0.3283    1.1587 H         1 <0>         0.2951
@<TRIPOS>BOND
     1    1    7 1
     2    1   13 1
     3    2    8 1
     4    2   14 1
     5    3    9 1
     6    3   15 1
     7    4   10 1
     8    4   16 1
     9    5    9 2
    10    6   10 2
    11    7    8 1
    12    7    9 1
    13    7   11 1
    14    8   10 1
    15    8   12 1
