@<TRIPOS>MOLECULE
DB00365
   48    51     0     0     0
SMALL
USER_CHARGES

@<TRIPOS>ATOM
      1 F1         -1.4441    2.6535    0.7730 F         1 <0>        -0.2032
      2 O1          3.6113    2.8415    0.3195 O.2       1 <0>        -0.2863
      3 O2          5.9167    2.2247   -0.6893 O.3       1 <0>        -0.4770
      4 O3          6.6130    0.1487   -0.0289 O.2       1 <0>        -0.2449
      5 N1          2.5842   -1.0366   -0.4013 N.pl3     1 <0>        -0.3425
      6 N2         -2.1491    0.0290    0.2849 N.pl3     1 <0>        -0.3249
      7 N3         -4.8468   -0.8867    0.1490 N.3       1 <0>        -0.3105
      8 C1          2.3079   -2.4637   -0.6747 C.3       1 <0>         0.0347
      9 C2          2.9977   -3.5377    0.0992 C.3       1 <0>        -0.0302
     10 C3          1.5301   -3.2916    0.2938 C.3       1 <0>        -0.0302
     11 C4          1.5386   -0.1164   -0.1050 C.ar      1 <0>         0.0552
     12 C5          3.8925   -0.5946   -0.4354 C.2       1 <0>         0.0231
     13 C6          1.8538    1.2358    0.1502 C.ar      1 <0>         0.0517
     14 C7         -0.8110    0.4361    0.2410 C.ar      1 <0>         0.0677
     15 C8         -3.0974    0.6717   -0.6364 C.3       1 <0>         0.0274
     16 C9          0.1876   -0.4965   -0.0537 C.ar      1 <0>        -0.0136
     17 C10        -4.5349    0.5222   -0.1162 C.3       1 <0>         0.0205
     18 C11        -2.4781   -1.3443    0.6798 C.3       1 <0>         0.0249
     19 C12        -3.9298   -1.4316    1.1480 C.3       1 <0>         0.0119
     20 C13         0.8525    2.1693    0.4454 C.ar      1 <0>        -0.0006
     21 C14         4.2988    0.6610   -0.2096 C.2       1 <0>         0.1220
     22 C15         3.2705    1.6846    0.1067 C.2       1 <0>         0.2037
     23 C16        -0.4792    1.7648    0.4898 C.ar      1 <0>         0.1480
     24 C17        -5.5343    1.0726   -1.1323 C.3       1 <0>        -0.0482
     25 C18         1.1198    3.6138    0.7261 C.3       1 <0>        -0.0362
     26 C19         5.7321    0.9491   -0.2886 C.2       1 <0>         0.3420
     27 H1          2.1375   -2.6476   -1.7307 H         1 <0>         0.0528
     28 H2          3.6586   -3.2642    0.9124 H         1 <0>         0.0286
     29 H3          3.2924   -4.4340   -0.4327 H         1 <0>         0.0286
     30 H4          0.8400   -4.0244   -0.1065 H         1 <0>         0.0286
     31 H5          1.2366   -2.8794    1.2515 H         1 <0>         0.0286
     32 H6          4.6010   -1.3790   -0.6843 H         1 <0>         0.0819
     33 H7         -2.9958    0.2069   -1.6266 H         1 <0>         0.0479
     34 H8         -2.8851    1.7383   -0.7679 H         1 <0>         0.0479
     35 H9         -4.6478    1.0938    0.8143 H         1 <0>         0.0473
     36 H10        -0.1001   -1.5108   -0.3038 H         1 <0>         0.0658
     37 H11        -1.8347   -1.6771    1.5039 H         1 <0>         0.0476
     38 H12        -2.3255   -2.0248   -0.1678 H         1 <0>         0.0476
     39 H13        -4.1900   -2.4781    1.3413 H         1 <0>         0.0439
     40 H14        -4.0568   -0.8957    2.0967 H         1 <0>         0.0439
     41 H15        -4.7576   -1.4212   -0.7156 H         1 <0>         0.1223
     42 H16        -5.3415    2.1331   -1.3270 H         1 <0>         0.0245
     43 H17        -5.4749    0.5391   -2.0876 H         1 <0>         0.0245
     44 H18        -6.5608    0.9847   -0.7589 H         1 <0>         0.0245
     45 H19         1.7503    3.7275    1.6141 H         1 <0>         0.0279
     46 H20         1.5804    4.0999   -0.1400 H         1 <0>         0.0279
     47 H21         0.2035    4.1772    0.9343 H         1 <0>         0.0279
     48 H22         6.8677    2.4567   -0.7543 H         1 <0>         0.2954
@<TRIPOS>BOND
     1    1   23 1
     2    2   22 2
     3    3   26 1
     4    3   48 1
     5    4   26 2
     6    5    8 1
     7    5   11 1
     8    5   12 2
     9    6   14 1
    10    6   15 1
    11    6   18 1
    12    7   17 1
    13    7   19 1
    14    7   41 1
    15    8    9 1
    16    8   10 1
    17    8   27 1
    18    9   10 1
    19    9   28 1
    20    9   29 1
    21   10   30 1
    22   10   31 1
    23   11   13 ar
    24   11   16 ar
    25   12   21 1
    26   12   32 1
    27   13   20 ar
    28   13   22 1
    29   14   16 ar
    30   14   23 ar
    31   15   17 1
    32   15   33 1
    33   15   34 1
    34   16   36 1
    35   17   24 1
    36   17   35 1
    37   18   19 1
    38   18   37 1
    39   18   38 1
    40   19   39 1
    41   19   40 1
    42   20   23 ar
    43   20   25 1
    44   21   22 1
    45   21   26 1
    46   24   42 1
    47   24   43 1
    48   24   44 1
    49   25   45 1
    50   25   46 1
    51   25   47 1
