@<TRIPOS>MOLECULE
DB00657
   33    34     0     0     0
SMALL
USER_CHARGES

@<TRIPOS>ATOM
      1 N1          1.5129   -0.2897   -1.0721 N.3       1 <0>        -0.3130
      2 C1         -0.9319   -0.6507   -0.3117 C.3       1 <0>        -0.0138
      3 C2          0.5956   -0.4118    0.0658 C.3       1 <0>         0.0242
      4 C3         -1.6256    0.5744    0.3854 C.3       1 <0>        -0.0339
      5 C4          0.5196    0.9173    0.8939 C.3       1 <0>        -0.0222
      6 C5         -0.7952    0.7472    1.6635 C.3       1 <0>        -0.0451
      7 C6         -1.3122    1.9070   -0.3198 C.3       1 <0>        -0.0493
      8 C7          0.1650    2.1370    0.0172 C.3       1 <0>        -0.0483
      9 C8         -1.2236   -0.7001   -1.8261 C.3       1 <0>        -0.0579
     10 C9         -1.5271   -1.9573    0.2667 C.3       1 <0>        -0.0579
     11 C10         1.2264   -1.5176    0.9397 C.3       1 <0>        -0.0460
     12 C11         2.8577    0.0146   -0.6137 C.3       1 <0>        -0.0153
     13 H1         -2.6959    0.4318    0.5578 H         1 <0>         0.0307
     14 H2          1.3735    1.1017    1.5511 H         1 <0>         0.0319
     15 H3         -1.0741    1.6374    2.2391 H         1 <0>         0.0271
     16 H4         -0.8130   -0.1148    2.3337 H         1 <0>         0.0271
     17 H5         -1.9174    2.7142    0.1113 H         1 <0>         0.0268
     18 H6         -1.5062    1.9059   -1.3940 H         1 <0>         0.0268
     19 H7          0.7852    2.2555   -0.8736 H         1 <0>         0.0269
     20 H8          0.2678    3.0610    0.5997 H         1 <0>         0.0269
     21 H9         -0.8140    0.1508   -2.3764 H         1 <0>         0.0236
     22 H10        -0.7967   -1.6053   -2.2738 H         1 <0>         0.0236
     23 H11        -2.3035   -0.7154   -2.0140 H         1 <0>         0.0236
     24 H12        -0.9927   -2.8365   -0.1092 H         1 <0>         0.0236
     25 H13        -1.5173   -1.9897    1.3594 H         1 <0>         0.0236
     26 H14        -2.5778   -2.0652   -0.0295 H         1 <0>         0.0236
     27 H15         1.4204   -2.4302    0.3631 H         1 <0>         0.0248
     28 H16         2.1552   -1.2114    1.4340 H         1 <0>         0.0248
     29 H17         0.5782   -1.8045    1.7732 H         1 <0>         0.0248
     30 H18         1.2006    0.4380   -1.7104 H         1 <0>         0.1222
     31 H19         2.9363    0.8619    0.0718 H         1 <0>         0.0388
     32 H20         3.4468    0.2988   -1.4948 H         1 <0>         0.0388
     33 H21         3.3832   -0.8545   -0.2071 H         1 <0>         0.0388
@<TRIPOS>BOND
     1    1    3 1
     2    1   12 1
     3    1   30 1
     4    2    3 1
     5    2    4 1
     6    2    9 1
     7    2   10 1
     8    3    5 1
     9    3   11 1
    10    4    6 1
    11    4    7 1
    12    4   13 1
    13    5    6 1
    14    5    8 1
    15    5   14 1
    16    6   15 1
    17    6   16 1
    18    7    8 1
    19    7   17 1
    20    7   18 1
    21    8   19 1
    22    8   20 1
    23    9   21 1
    24    9   22 1
    25    9   23 1
    26   10   24 1
    27   10   25 1
    28   10   26 1
    29   11   27 1
    30   11   28 1
    31   11   29 1
    32   12   31 1
    33   12   32 1
    34   12   33 1
