@<TRIPOS>MOLECULE
DB00130
   20    19     0     0     0
SMALL
USER_CHARGES

@<TRIPOS>ATOM
      1 O1         -1.6529    1.4229   -1.7027 O.co2     1 <0>        -0.5442
      2 O2         -1.7190    2.5336    0.2931 O.co2     1 <0>        -0.5442
      3 O3          2.3500   -1.7117   -0.6316 O.2       1 <0>        -0.2760
      4 N1         -2.5869   -0.7320    0.1213 N.4       1 <0>         0.2249
      5 N2          3.5145    0.1504    0.0491 N.am      1 <0>        -0.3293
      6 C1         -1.4245    0.1918    0.3203 C.3       1 <0>         0.0164
      7 C2         -0.1669   -0.5873   -0.0767 C.3       1 <0>         0.0039
      8 C3          1.1132    0.2109    0.1810 C.3       1 <0>         0.0292
      9 C4         -1.6236    1.5103   -0.4436 C.2       1 <0>         0.0894
     10 C5          2.3618   -0.5691   -0.1833 C.2       1 <0>         0.2107
     11 H1         -1.4045    0.3921    1.3983 H         1 <0>         0.0915
     12 H2         -0.2111   -0.8637   -1.1385 H         1 <0>         0.0328
     13 H3         -0.1216   -1.5291    0.4861 H         1 <0>         0.0328
     14 H4          1.1763    0.4835    1.2412 H         1 <0>         0.0360
     15 H5          1.1130    1.1361   -0.4068 H         1 <0>         0.0360
     16 H6         -3.4675   -0.2877    0.4137 H         1 <0>         0.2001
     17 H7         -2.4845   -1.5953    0.6718 H         1 <0>         0.2001
     18 H8         -2.6916   -1.0025   -0.8659 H         1 <0>         0.2001
     19 H9          4.4266   -0.2476   -0.1484 H         1 <0>         0.1449
     20 H10         3.4993    1.0945    0.4215 H         1 <0>         0.1449
@<TRIPOS>BOND
     1    1    9 2
     2    2    9 1
     3    3   10 2
     4    4    6 1
     5    4   16 1
     6    4   17 1
     7    4   18 1
     8    5   10 am
     9    5   19 1
    10    5   20 1
    11    6    7 1
    12    6    9 1
    13    6   11 1
    14    7    8 1
    15    7   12 1
    16    7   13 1
    17    8   10 1
    18    8   14 1
    19    8   15 1
