@<TRIPOS>MOLECULE
DB00333
   50    51     0     0     0
SMALL
USER_CHARGES

@<TRIPOS>ATOM
      1 O1         -1.1567    0.6079   -2.5013 O.2       1 <0>        -0.2961
      2 N1          2.5013    0.1550    0.1852 N.3       1 <0>        -0.3056
      3 C1         -0.6506    0.0023   -0.1689 C.3       1 <0>         0.0800
      4 C2          0.1962    0.7211    0.9492 C.3       1 <0>        -0.0171
      5 C3          1.6013    1.2476    0.5584 C.3       1 <0>         0.0085
      6 C4         -2.0781   -0.3956    0.3263 C.ar      1 <0>        -0.0297
      7 C5          0.1323   -1.2711   -0.5972 C.ar      1 <0>        -0.0297
      8 C6         -0.9305    1.0018   -1.3537 C.2       1 <0>         0.1478
      9 C7          2.2287    2.0093    1.7294 C.3       1 <0>        -0.0494
     10 C8         -1.0447    2.4905   -1.0250 C.3       1 <0>         0.0042
     11 C9         -2.8927   -1.0339   -0.5576 C.ar      1 <0>        -0.0573
     12 C10        -0.1632   -2.4411    0.0394 C.ar      1 <0>        -0.0573
     13 C11        -2.4087   -0.0762    1.6071 C.ar      1 <0>        -0.0573
     14 C12         1.0664   -1.1396   -1.5827 C.ar      1 <0>        -0.0573
     15 C13         2.6947   -0.7539    1.3138 C.3       1 <0>        -0.0128
     16 C14         3.7850    0.6853   -0.2713 C.3       1 <0>        -0.0128
     17 C15        -1.9693    3.2285   -1.9796 C.3       1 <0>        -0.0585
     18 C16        -4.1673   -1.3887   -0.1157 C.ar      1 <0>        -0.0615
     19 C17         0.5395   -3.5834   -0.3445 C.ar      1 <0>        -0.0615
     20 C18        -3.6833   -0.4310    2.0489 C.ar      1 <0>        -0.0615
     21 C19         1.7689   -2.2818   -1.9667 C.ar      1 <0>        -0.0615
     22 C20        -4.5625   -1.0873    1.1876 C.ar      1 <0>        -0.0617
     23 C21         1.5055   -3.5037   -1.3475 C.ar      1 <0>        -0.0617
     24 H1          0.2748    0.0740    1.8310 H         1 <0>         0.0296
     25 H2         -0.3442    1.5987    1.3241 H         1 <0>         0.0296
     26 H3          1.5167    1.9312   -0.2879 H         1 <0>         0.0460
     27 H4          2.2753    1.4355    2.6600 H         1 <0>         0.0245
     28 H5          3.2141    2.4311    1.5164 H         1 <0>         0.0245
     29 H6          1.5947    2.8767    1.9572 H         1 <0>         0.0245
     30 H7         -1.4744    2.6158   -0.0287 H         1 <0>         0.0339
     31 H8         -0.0601    2.9570   -1.0619 H         1 <0>         0.0339
     32 H9         -2.6021   -1.2870   -1.5707 H         1 <0>         0.0621
     33 H10        -0.8725   -2.5391    0.8524 H         1 <0>         0.0621
     34 H11        -1.7784    0.4275    2.3255 H         1 <0>         0.0621
     35 H12         1.2748   -0.2090   -2.0996 H         1 <0>         0.0621
     36 H13         1.7872   -1.1951    1.7270 H         1 <0>         0.0391
     37 H14         3.2770   -0.3265    2.1373 H         1 <0>         0.0391
     38 H15         3.2790   -1.6150    0.9628 H         1 <0>         0.0391
     39 H16         4.4270    1.0717    0.5267 H         1 <0>         0.0391
     40 H17         3.6511    1.4646   -1.0302 H         1 <0>         0.0391
     41 H18         4.3479   -0.1184   -0.7614 H         1 <0>         0.0391
     42 H19        -1.5806    3.2023   -3.0030 H         1 <0>         0.0234
     43 H20        -2.0699    4.2765   -1.6810 H         1 <0>         0.0234
     44 H21        -2.9663    2.7754   -1.9883 H         1 <0>         0.0234
     45 H22        -4.8511   -1.9019   -0.7854 H         1 <0>         0.0618
     46 H23         0.3422   -4.5329    0.1445 H         1 <0>         0.0618
     47 H24        -3.9920   -0.1975    3.0638 H         1 <0>         0.0618
     48 H25         2.5181   -2.2208   -2.7505 H         1 <0>         0.0618
     49 H26        -5.5545   -1.3643    1.5319 H         1 <0>         0.0618
     50 H27         2.0537   -4.3926   -1.6453 H         1 <0>         0.0618
@<TRIPOS>BOND
     1    1    8 2
     2    2    5 1
     3    2   15 1
     4    2   16 1
     5    3    4 1
     6    3    6 1
     7    3    7 1
     8    3    8 1
     9    4    5 1
    10    4   24 1
    11    4   25 1
    12    5    9 1
    13    5   26 1
    14    6   11 ar
    15    6   13 ar
    16    7   12 ar
    17    7   14 ar
    18    8   10 1
    19    9   27 1
    20    9   28 1
    21    9   29 1
    22   10   17 1
    23   10   30 1
    24   10   31 1
    25   11   18 ar
    26   11   32 1
    27   12   19 ar
    28   12   33 1
    29   13   20 ar
    30   13   34 1
    31   14   21 ar
    32   14   35 1
    33   15   36 1
    34   15   37 1
    35   15   38 1
    36   16   39 1
    37   16   40 1
    38   16   41 1
    39   17   42 1
    40   17   43 1
    41   17   44 1
    42   18   22 ar
    43   18   45 1
    44   19   23 ar
    45   19   46 1
    46   20   22 ar
    47   20   47 1
    48   21   23 ar
    49   21   48 1
    50   22   49 1
    51   23   50 1
