@<TRIPOS>MOLECULE
DB00257
   42    45     0     0     0
SMALL
USER_CHARGES

@<TRIPOS>ATOM
      1 Cl1        -0.1364   -0.5425   -2.7817 Cl        1 <0>        -0.0832
      2 N1          0.1171    0.0468    1.7819 N.pl3     1 <0>        -0.3186
      3 N2          0.3850   -0.5743    3.8052 N.2       1 <0>        -0.2440
      4 C1          0.1218   -0.0323    0.2480 C.3       1 <0>         0.1233
      5 C2         -0.9544   -1.1202   -0.2422 C.ar      1 <0>         0.0055
      6 C3          1.5482   -0.2835   -0.1073 C.ar      1 <0>        -0.0127
      7 C4         -0.5613    1.2867   -0.3650 C.ar      1 <0>        -0.0127
      8 C5         -1.0612   -1.3367   -1.5597 C.ar      1 <0>         0.0470
      9 C6         -1.6412   -1.7035    0.7567 C.ar      1 <0>        -0.0543
     10 C7          2.5264    0.6511    0.2326 C.ar      1 <0>        -0.0557
     11 C8          0.2266    2.0411   -1.1446 C.ar      1 <0>        -0.0557
     12 C9          1.9042   -1.4526   -0.7793 C.ar      1 <0>        -0.0557
     13 C10        -1.8436    1.4876   -0.0292 C.ar      1 <0>        -0.0557
     14 C11        -0.2752    1.1120    2.4423 C.cat     1 <0>         0.0256
     15 C12         0.5049   -0.9462    2.5502 C.cat     1 <0>         0.0971
     16 C13        -0.1013    0.7077    3.7450 C.2       1 <0>         0.0454
     17 C14        -2.0047   -2.2883   -1.9466 C.ar      1 <0>        -0.0430
     18 C15        -2.5849   -2.6550    0.3699 C.ar      1 <0>        -0.0613
     19 C16         3.8607    0.4162   -0.0997 C.ar      1 <0>        -0.0614
     20 C17        -0.3663    3.1862   -1.6768 C.ar      1 <0>        -0.0614
     21 C18         3.2384   -1.6876   -1.1116 C.ar      1 <0>        -0.0614
     22 C19        -2.4365    2.6326   -0.5613 C.ar      1 <0>        -0.0614
     23 C20        -2.7666   -2.9474   -0.9819 C.ar      1 <0>        -0.0604
     24 C21         4.2166   -0.7531   -0.7718 C.ar      1 <0>        -0.0617
     25 C22        -1.6978    3.4819   -1.3851 C.ar      1 <0>        -0.0617
     26 H1         -1.6414   -1.4915    1.8118 H         1 <0>         0.0622
     27 H2          2.2842    1.5633    0.7717 H         1 <0>         0.0621
     28 H3          1.2433    1.8474   -1.4462 H         1 <0>         0.0621
     29 H4          1.2182   -2.2642   -0.9912 H         1 <0>         0.0621
     30 H5         -2.4431    0.8636    0.6202 H         1 <0>         0.0621
     31 H6         -0.5837    2.0767    2.0695 H         1 <0>         0.0825
     32 H7          0.8754   -1.9100    2.2255 H         1 <0>         0.1029
     33 H8         -0.2867    1.2799    4.6424 H         1 <0>         0.0845
     34 H9         -2.1592   -2.5271   -2.9959 H         1 <0>         0.0632
     35 H10        -3.1930   -3.1553    1.1182 H         1 <0>         0.0618
     36 H11         4.6233    1.1412    0.1693 H         1 <0>         0.0618
     37 H12         0.2050    3.8426   -2.3270 H         1 <0>         0.0618
     38 H13         3.5196   -2.6075   -1.6159 H         1 <0>         0.0618
     39 H14        -3.4723    2.8653   -0.3314 H         1 <0>         0.0618
     40 H15        -3.5047   -3.6850   -1.2832 H         1 <0>         0.0618
     41 H16         5.2562   -0.9387   -1.0252 H         1 <0>         0.0618
     42 H17        -2.1599    4.3726   -1.8007 H         1 <0>         0.0618
@<TRIPOS>BOND
     1    1    8 1
     2    2    4 1
     3    2   14 1
     4    2   15 2
     5    3   15 1
     6    3   16 2
     7    4    5 1
     8    4    6 1
     9    4    7 1
    10    5    8 ar
    11    5    9 ar
    12    6   10 ar
    13    6   12 ar
    14    7   11 ar
    15    7   13 ar
    16    8   17 ar
    17    9   18 ar
    18    9   26 1
    19   10   19 ar
    20   10   27 1
    21   11   20 ar
    22   11   28 1
    23   12   21 ar
    24   12   29 1
    25   13   22 ar
    26   13   30 1
    27   14   16 1
    28   14   31 1
    29   15   32 1
    30   16   33 1
    31   17   23 ar
    32   17   34 1
    33   18   23 ar
    34   18   35 1
    35   19   24 ar
    36   19   36 1
    37   20   25 ar
    38   20   37 1
    39   21   24 ar
    40   21   38 1
    41   22   25 ar
    42   22   39 1
    43   23   40 1
    44   24   41 1
    45   25   42 1
