@<TRIPOS>MOLECULE
DB00655
   42    45     0     0     0
SMALL
USER_CHARGES

@<TRIPOS>ATOM
      1 O1          4.6631   -1.3916    0.4345 O.2       1 <0>        -0.2968
      2 O2         -6.0984   -0.1549   -0.4021 O.3       1 <0>        -0.5068
      3 C1          1.7587    0.5145    0.3943 C.3       1 <0>        -0.0252
      4 C2          2.3888   -0.7754   -0.1716 C.3       1 <0>         0.0293
      5 C3          0.2933    0.6413   -0.0187 C.3       1 <0>        -0.0302
      6 C4         -0.4923   -0.5576    0.5981 C.3       1 <0>        -0.0124
      7 C5          1.6855   -1.9626    0.4771 C.3       1 <0>        -0.0401
      8 C6          2.7549    1.6083    0.0274 C.3       1 <0>        -0.0424
      9 C7          0.1651   -1.9162    0.2290 C.3       1 <0>        -0.0450
     10 C8         -0.3459    1.9485    0.4520 C.3       1 <0>        -0.0454
     11 C9          3.8247   -0.5195    0.2493 C.2       1 <0>         0.1395
     12 C10         4.1058    0.9681    0.3810 C.3       1 <0>         0.0067
     13 C11         2.3990   -0.9074   -1.7061 C.3       1 <0>        -0.0526
     14 C12        -1.9843   -0.4558    0.2937 C.ar      1 <0>        -0.0406
     15 C13        -1.7617    2.0631   -0.1057 C.3       1 <0>        -0.0270
     16 C14        -2.5731    0.7953    0.0070 C.ar      1 <0>        -0.0405
     17 C15        -2.8228   -1.5816    0.3777 C.ar      1 <0>        -0.0546
     18 C16        -3.9555    0.8796   -0.2360 C.ar      1 <0>        -0.0167
     19 C17        -4.1959   -1.4824    0.1422 C.ar      1 <0>        -0.0199
     20 C18        -4.7619   -0.2529   -0.1690 C.ar      1 <0>         0.1171
     21 H1          1.7745    0.4612    1.4969 H         1 <0>         0.0313
     22 H2          0.2153    0.6105   -1.1131 H         1 <0>         0.0310
     23 H3         -0.4212   -0.4715    1.6936 H         1 <0>         0.0352
     24 H4          1.8730   -1.9667    1.5590 H         1 <0>         0.0275
     25 H5          2.0916   -2.9088    0.0994 H         1 <0>         0.0275
     26 H6          2.5981    2.5296    0.5969 H         1 <0>         0.0272
     27 H7          2.7049    1.8617   -1.0370 H         1 <0>         0.0272
     28 H8         -0.0438   -2.1517   -0.8218 H         1 <0>         0.0271
     29 H9         -0.2820   -2.7252    0.8183 H         1 <0>         0.0271
     30 H10         0.2345    2.8166    0.1205 H         1 <0>         0.0271
     31 H11        -0.3723    1.9813    1.5487 H         1 <0>         0.0271
     32 H12         4.3850    1.1844    1.4162 H         1 <0>         0.0342
     33 H13         4.8924    1.2815   -0.3087 H         1 <0>         0.0342
     34 H14         1.3946   -0.9444   -2.1360 H         1 <0>         0.0239
     35 H15         2.9354   -0.0862   -2.1931 H         1 <0>         0.0239
     36 H16         2.9132   -1.8299   -2.0028 H         1 <0>         0.0239
     37 H17        -1.7055    2.3318   -1.1685 H         1 <0>         0.0313
     38 H18        -2.2766    2.8809    0.4130 H         1 <0>         0.0313
     39 H19        -2.4270   -2.5594    0.6355 H         1 <0>         0.0622
     40 H20        -4.3977    1.8441   -0.4778 H         1 <0>         0.0657
     41 H21        -4.8166   -2.3720    0.2084 H         1 <0>         0.0654
     42 H22        -6.3170    0.7716   -0.6017 H         1 <0>         0.2921
@<TRIPOS>BOND
     1    1   11 2
     2    2   20 1
     3    2   42 1
     4    3    4 1
     5    3    5 1
     6    3    8 1
     7    3   21 1
     8    4    7 1
     9    4   11 1
    10    4   13 1
    11    5    6 1
    12    5   10 1
    13    5   22 1
    14    6    9 1
    15    6   14 1
    16    6   23 1
    17    7    9 1
    18    7   24 1
    19    7   25 1
    20    8   12 1
    21    8   26 1
    22    8   27 1
    23    9   28 1
    24    9   29 1
    25   10   15 1
    26   10   30 1
    27   10   31 1
    28   11   12 1
    29   12   32 1
    30   12   33 1
    31   13   34 1
    32   13   35 1
    33   13   36 1
    34   14   16 ar
    35   14   17 ar
    36   15   16 1
    37   15   37 1
    38   15   38 1
    39   16   18 ar
    40   17   19 ar
    41   17   39 1
    42   18   20 ar
    43   18   40 1
    44   19   20 ar
    45   19   41 1
