@<TRIPOS>MOLECULE
DB00384
   30    32     0     0     0
SMALL
USER_CHARGES

@<TRIPOS>ATOM
      1 N1         -0.2880   -0.6523   -0.0299 N.ar      1 <0>        -0.2367
      2 N2         -1.1946    1.9622   -0.0231 N.ar      1 <0>        -0.2091
      3 N3         -3.3870    1.2175   -0.0227 N.ar      1 <0>        -0.1932
      4 N4         -3.8933   -1.1264   -0.0270 N.ar      1 <0>        -0.1978
      5 N5          1.0474    2.7384   -0.0242 N.pl3     1 <0>        -0.3414
      6 N6         -2.1321   -2.7013   -0.0321 N.pl3     1 <0>        -0.3413
      7 N7         -5.6102    0.4655   -0.0225 N.pl3     1 <0>        -0.3274
      8 C1          0.5695    0.3800   -0.0287 C.ar      1 <0>         0.1113
      9 C2         -1.6028   -0.3604   -0.0277 C.ar      1 <0>         0.1482
     10 C3          1.9653    0.0104   -0.0312 C.ar      1 <0>         0.0037
     11 C4         -2.0747    0.9538   -0.0244 C.ar      1 <0>         0.1868
     12 C5          0.1208    1.6721   -0.0254 C.ar      1 <0>         0.1448
     13 C6         -2.5668   -1.3504   -0.0287 C.ar      1 <0>         0.1491
     14 C7          2.6432   -0.1713    1.1758 C.ar      1 <0>        -0.0525
     15 C8          2.6415   -0.1658   -1.2401 C.ar      1 <0>        -0.0525
     16 C9         -4.2302    0.1681   -0.0241 C.ar      1 <0>         0.2163
     17 C10         3.9918   -0.5279    1.1741 C.ar      1 <0>        -0.0611
     18 C11         3.9901   -0.5223   -1.2418 C.ar      1 <0>        -0.0611
     19 C12         4.6652   -0.7034   -0.0348 C.ar      1 <0>        -0.0617
     20 H1          2.1332   -0.0384    2.1271 H         1 <0>         0.0624
     21 H2          2.1300   -0.0288   -2.1900 H         1 <0>         0.0624
     22 H3          4.5176   -0.6689    2.1139 H         1 <0>         0.0618
     23 H4          4.5145   -0.6591   -2.1829 H         1 <0>         0.0618
     24 H5          5.7151   -0.9810   -0.0361 H         1 <0>         0.0618
     25 H6          0.6616    3.6749   -0.0279 H         1 <0>         0.1438
     26 H7          1.9467    2.6055    0.4210 H         1 <0>         0.1438
     27 H8         -2.8496   -3.4157   -0.0233 H         1 <0>         0.1438
     28 H9         -1.2321   -2.9159    0.3794 H         1 <0>         0.1438
     29 H10        -6.2815   -0.2899   -0.0228 H         1 <0>         0.1452
     30 H11        -5.9107    1.4304   -0.0196 H         1 <0>         0.1452
@<TRIPOS>BOND
     1    1    8 ar
     2    1    9 ar
     3    2   11 ar
     4    2   12 ar
     5    3   11 ar
     6    3   16 ar
     7    4   13 ar
     8    4   16 ar
     9    5   12 1
    10    5   25 1
    11    5   26 1
    12    6   13 1
    13    6   27 1
    14    6   28 1
    15    7   16 1
    16    7   29 1
    17    7   30 1
    18    8   10 1
    19    8   12 ar
    20    9   11 ar
    21    9   13 ar
    22   10   14 ar
    23   10   15 ar
    24   14   17 ar
    25   14   20 1
    26   15   18 ar
    27   15   21 1
    28   17   19 ar
    29   17   22 1
    30   18   19 ar
    31   18   23 1
    32   19   24 1
