@<TRIPOS>MOLECULE
DB00975
   76    79     0     0     0
SMALL
USER_CHARGES

@<TRIPOS>ATOM
      1 O1         -3.6810    3.9361   -2.2374 O.3       1 <0>        -0.3935
      2 O2         -4.5816    2.4418    2.2701 O.3       1 <0>        -0.3935
      3 O3          3.6829   -3.9352   -2.2379 O.3       1 <0>        -0.3935
      4 O4          4.5789   -2.4442    2.2718 O.3       1 <0>        -0.3935
      5 N1          1.7956    2.3865    0.0129 N.pl3     1 <0>        -0.3134
      6 N2         -1.7954   -2.3860    0.0122 N.pl3     1 <0>        -0.3134
      7 N3         -0.5527    2.4276    0.0151 N.ar      1 <0>        -0.1972
      8 N4          0.5529   -2.4272    0.0132 N.ar      1 <0>        -0.1972
      9 N5         -1.7856    0.3688    0.0142 N.ar      1 <0>        -0.2092
     10 N6          1.7859   -0.3684    0.0140 N.ar      1 <0>        -0.2092
     11 N7         -2.8963    2.4347    0.0131 N.pl3     1 <0>        -0.2952
     12 N8          2.8963   -2.4350    0.0128 N.pl3     1 <0>        -0.2952
     13 C1          1.8266    3.7015    0.6689 C.3       1 <0>         0.0136
     14 C2          2.7367    2.1888   -1.0954 C.3       1 <0>         0.0136
     15 C3         -1.8256   -3.7016    0.6673 C.3       1 <0>         0.0136
     16 C4         -2.7376   -2.1875   -1.0950 C.3       1 <0>         0.0136
     17 C5          3.2472    4.0485    1.1088 C.3       1 <0>        -0.0371
     18 C6          4.1594    2.5397   -0.6622 C.3       1 <0>        -0.0371
     19 C7         -3.2457   -4.0490    1.1084 C.3       1 <0>        -0.0371
     20 C8         -4.1599   -2.5389   -0.6606 C.3       1 <0>        -0.0371
     21 C9          4.2321    3.9323   -0.0481 C.3       1 <0>        -0.0502
     22 C10        -4.2318   -3.9319   -0.0475 C.3       1 <0>        -0.0502
     23 C11         0.5788    1.6933    0.0148 C.ar      1 <0>         0.1528
     24 C12        -0.5786   -1.6927    0.0134 C.ar      1 <0>         0.1528
     25 C13        -0.6234   -0.3117    0.0140 C.ar      1 <0>         0.1360
     26 C14         0.6237    0.3122    0.0143 C.ar      1 <0>         0.1360
     27 C15        -1.6852    1.7099    0.0148 C.ar      1 <0>         0.2204
     28 C16         1.6855   -1.7095    0.0135 C.ar      1 <0>         0.2204
     29 C17        -2.8832    3.8836    0.0276 C.3       1 <0>         0.0381
     30 C18        -4.1671    1.7389    0.0110 C.3       1 <0>         0.0381
     31 C19         2.8825   -3.8838    0.0263 C.3       1 <0>         0.0381
     32 C20         4.1673   -1.7396    0.0127 C.3       1 <0>         0.0381
     33 C21        -2.6550    4.4153   -1.3772 C.3       1 <0>         0.0600
     34 C22        -4.5226    1.3018    1.4220 C.3       1 <0>         0.0600
     35 C23         2.6557   -4.4144   -1.3792 C.3       1 <0>         0.0600
     36 C24         4.5213   -1.3037    1.4244 C.3       1 <0>         0.0600
     37 H1          1.1864    3.7074    1.5603 H         1 <0>         0.0464
     38 H2          1.4464    4.4665   -0.0195 H         1 <0>         0.0464
     39 H3          2.4381    2.8431   -1.9251 H         1 <0>         0.0464
     40 H4          2.7366    1.1739   -1.5014 H         1 <0>         0.0464
     41 H5         -1.1846   -3.7080    1.5580 H         1 <0>         0.0464
     42 H6         -1.4461   -4.4661   -0.0222 H         1 <0>         0.0464
     43 H7         -2.4398   -2.8415   -1.9253 H         1 <0>         0.0464
     44 H8         -2.7379   -1.1724   -1.5005 H         1 <0>         0.0464
     45 H9          3.2704    5.0647    1.5176 H         1 <0>         0.0280
     46 H10         3.5551    3.3700    1.9145 H         1 <0>         0.0280
     47 H11         4.5079    1.8019    0.0714 H         1 <0>         0.0280
     48 H12         4.8333    2.4793   -1.5241 H         1 <0>         0.0280
     49 H13        -3.2684   -5.0655    1.5164 H         1 <0>         0.0280
     50 H14        -3.5530   -3.3711    1.9149 H         1 <0>         0.0280
     51 H15        -4.5076   -1.8016    0.0738 H         1 <0>         0.0280
     52 H16        -4.8346   -2.4779   -1.5218 H         1 <0>         0.0280
     53 H17         4.0019    4.6872   -0.8096 H         1 <0>         0.0266
     54 H18         5.2493    4.1298    0.3074 H         1 <0>         0.0266
     55 H19        -4.0024   -4.6861   -0.8097 H         1 <0>         0.0266
     56 H20        -5.2487   -4.1297    0.3089 H         1 <0>         0.0266
     57 H21        -2.1274    4.2755    0.7186 H         1 <0>         0.0487
     58 H22        -3.8476    4.2603    0.3907 H         1 <0>         0.0487
     59 H23        -4.1599    0.8815   -0.6718 H         1 <0>         0.0487
     60 H24        -4.9551    2.4082   -0.3565 H         1 <0>         0.0487
     61 H25         3.8463   -4.2611    0.3902 H         1 <0>         0.0487
     62 H26         2.1257   -4.2759    0.7162 H         1 <0>         0.0487
     63 H27         4.9554   -2.4089   -0.3545 H         1 <0>         0.0487
     64 H28         4.1613   -0.8815   -0.6694 H         1 <0>         0.0487
     65 H29        -2.6883    5.5094   -1.3748 H         1 <0>         0.0573
     66 H30        -1.6899    4.0989   -1.7842 H         1 <0>         0.0573
     67 H31        -5.5025    0.8140    1.4284 H         1 <0>         0.0573
     68 H32        -3.7862    0.6047    1.8333 H         1 <0>         0.0573
     69 H33         2.6885   -5.5086   -1.3774 H         1 <0>         0.0573
     70 H34         1.6912   -4.0973   -1.7872 H         1 <0>         0.0573
     71 H35         5.5015   -0.8163    1.4323 H         1 <0>         0.0573
     72 H36         3.7847   -0.6066    1.8352 H         1 <0>         0.0573
     73 H37        -3.5082    4.3051   -3.1203 H         1 <0>         0.2095
     74 H38        -4.8218    2.1248    3.1574 H         1 <0>         0.2095
     75 H39         3.5110   -4.3034   -3.1212 H         1 <0>         0.2095
     76 H40         4.8180   -2.1278    3.1596 H         1 <0>         0.2095
@<TRIPOS>BOND
     1    1   33 1
     2    1   73 1
     3    2   34 1
     4    2   74 1
     5    3   35 1
     6    3   75 1
     7    4   36 1
     8    4   76 1
     9    5   13 1
    10    5   14 1
    11    5   23 1
    12    6   15 1
    13    6   16 1
    14    6   24 1
    15    7   23 ar
    16    7   27 ar
    17    8   24 ar
    18    8   28 ar
    19    9   25 ar
    20    9   27 ar
    21   10   26 ar
    22   10   28 ar
    23   11   27 1
    24   11   29 1
    25   11   30 1
    26   12   28 1
    27   12   31 1
    28   12   32 1
    29   13   17 1
    30   13   37 1
    31   13   38 1
    32   14   18 1
    33   14   39 1
    34   14   40 1
    35   15   19 1
    36   15   41 1
    37   15   42 1
    38   16   20 1
    39   16   43 1
    40   16   44 1
    41   17   21 1
    42   17   45 1
    43   17   46 1
    44   18   21 1
    45   18   47 1
    46   18   48 1
    47   19   22 1
    48   19   49 1
    49   19   50 1
    50   20   22 1
    51   20   51 1
    52   20   52 1
    53   21   53 1
    54   21   54 1
    55   22   55 1
    56   22   56 1
    57   23   26 ar
    58   24   25 ar
    59   25   26 ar
    60   29   33 1
    61   29   57 1
    62   29   58 1
    63   30   34 1
    64   30   59 1
    65   30   60 1
    66   31   35 1
    67   31   61 1
    68   31   62 1
    69   32   36 1
    70   32   63 1
    71   32   64 1
    72   33   65 1
    73   33   66 1
    74   34   67 1
    75   34   68 1
    76   35   69 1
    77   35   70 1
    78   36   71 1
    79   36   72 1
