@<TRIPOS>MOLECULE
DB00285
   47    48     0     0     0
SMALL
USER_CHARGES

@<TRIPOS>ATOM
      1 O1         -0.9875   -0.9673    1.4671 O.3       1 <0>        -0.3879
      2 O2          4.7719   -1.6160   -0.5764 O.3       1 <0>        -0.4951
      3 N1          0.4753    2.8426    0.0366 N.3       1 <0>        -0.3077
      4 C1         -1.4322   -0.5037    0.1887 C.3       1 <0>         0.0740
      5 C2         -0.4322    0.5455   -0.3006 C.3       1 <0>         0.0257
      6 C3         -1.4596   -1.7057   -0.7679 C.3       1 <0>        -0.0234
      7 C4         -2.8342    0.1093    0.3380 C.3       1 <0>        -0.0234
      8 C5         -2.5131   -2.7409   -0.3696 C.3       1 <0>        -0.0504
      9 C6         -3.8820   -0.9316    0.7352 C.3       1 <0>        -0.0504
     10 C7         -3.8955   -2.1117   -0.2310 C.3       1 <0>        -0.0529
     11 C8         -0.4368    1.8286    0.5576 C.3       1 <0>         0.0078
     12 C9          0.9729   -0.0379   -0.3750 C.ar      1 <0>        -0.0401
     13 C10         1.5967   -0.1161   -1.6023 C.ar      1 <0>        -0.0547
     14 C11         1.5765   -0.4695    0.7876 C.ar      1 <0>        -0.0547
     15 C12         0.4973    4.0132    0.9143 C.3       1 <0>        -0.0130
     16 C13         0.0903    3.2311   -1.3207 C.3       1 <0>        -0.0130
     17 C14         2.8832   -0.6506   -1.6704 C.ar      1 <0>        -0.0197
     18 C15         2.8631   -1.0039    0.7196 C.ar      1 <0>        -0.0197
     19 C16         3.5167   -1.0944   -0.5095 C.ar      1 <0>         0.1201
     20 C17         5.3608   -2.0507    0.6484 C.3       1 <0>         0.0788
     21 H1         -0.7614    0.8070   -1.3148 H         1 <0>         0.0389
     22 H2         -0.4954   -2.2268   -0.7816 H         1 <0>         0.0293
     23 H3         -1.6659   -1.3688   -1.7919 H         1 <0>         0.0293
     24 H4         -3.1409    0.5884   -0.6001 H         1 <0>         0.0293
     25 H5         -2.8597    0.8684    1.1270 H         1 <0>         0.0293
     26 H6         -2.2289   -3.2126    0.5789 H         1 <0>         0.0266
     27 H7         -2.5463   -3.5377   -1.1214 H         1 <0>         0.0266
     28 H8         -4.8732   -0.4642    0.7573 H         1 <0>         0.0266
     29 H9         -3.6800   -1.2929    1.7509 H         1 <0>         0.0266
     30 H10        -4.2422   -1.7729   -1.2151 H         1 <0>         0.0265
     31 H11        -4.6108   -2.8654    0.1172 H         1 <0>         0.0265
     32 H12        -1.4417    2.2632    0.5964 H         1 <0>         0.0433
     33 H13        -0.1595    1.5943    1.5926 H         1 <0>         0.0433
     34 H14        -1.1986   -0.2910    2.1324 H         1 <0>         0.2102
     35 H15         1.1126    0.2174   -2.5147 H         1 <0>         0.0622
     36 H16         1.1440   -0.3547    1.7739 H         1 <0>         0.0622
     37 H17         0.8165    3.7321    1.9243 H         1 <0>         0.0391
     38 H18        -0.4834    4.4979    0.9841 H         1 <0>         0.0391
     39 H19         1.2221    4.7515    0.5537 H         1 <0>         0.0391
     40 H20         0.6919    4.0864   -1.6525 H         1 <0>         0.0391
     41 H21        -0.9635    3.5257   -1.3876 H         1 <0>         0.0391
     42 H22         0.2887    2.4511   -2.0588 H         1 <0>         0.0391
     43 H23         3.3865   -0.7206   -2.6309 H         1 <0>         0.0654
     44 H24         3.3033   -1.3149    1.6610 H         1 <0>         0.0654
     45 H25         5.5030   -1.2169    1.3442 H         1 <0>         0.0660
     46 H26         6.3558   -2.4398    0.4084 H         1 <0>         0.0660
     47 H27         4.7951   -2.8743    1.0972 H         1 <0>         0.0660
@<TRIPOS>BOND
     1    1    4 1
     2    1   34 1
     3    2   19 1
     4    2   20 1
     5    3   11 1
     6    3   15 1
     7    3   16 1
     8    4    5 1
     9    4    6 1
    10    4    7 1
    11    5   11 1
    12    5   12 1
    13    5   21 1
    14    6    8 1
    15    6   22 1
    16    6   23 1
    17    7    9 1
    18    7   24 1
    19    7   25 1
    20    8   10 1
    21    8   26 1
    22    8   27 1
    23    9   10 1
    24    9   28 1
    25    9   29 1
    26   10   30 1
    27   10   31 1
    28   11   32 1
    29   11   33 1
    30   12   13 ar
    31   12   14 ar
    32   13   17 ar
    33   13   35 1
    34   14   18 ar
    35   14   36 1
    36   15   37 1
    37   15   38 1
    38   15   39 1
    39   16   40 1
    40   16   41 1
    41   16   42 1
    42   17   19 ar
    43   17   43 1
    44   18   19 ar
    45   18   44 1
    46   20   45 1
    47   20   46 1
    48   20   47 1
