@<TRIPOS>MOLECULE
DB00588
   65    68     0     0     0
SMALL
USER_CHARGES

@<TRIPOS>ATOM
      1 S1          3.4124    2.1929   -0.9485 S.3       1 <0>        -0.0505
      2 F1         -1.7984   -0.7470   -1.2252 F         1 <0>        -0.2377
      3 F2         -4.2632   -2.4759    1.8982 F         1 <0>        -0.2407
      4 F3          5.0496    4.0923   -1.6245 F         1 <0>        -0.2370
      5 O1          2.5508   -0.5765   -0.6606 O.3       1 <0>        -0.4486
      6 O2         -1.5303    2.7098   -0.2924 O.3       1 <0>        -0.3886
      7 O3          4.1798    1.3049    1.4181 O.2       1 <0>        -0.2808
      8 O4          4.7840   -0.8072   -0.1287 O.2       1 <0>        -0.2508
      9 O5         -6.3768   -1.8250   -2.4791 O.2       1 <0>        -0.2879
     10 C1          0.8383    0.8067    0.4908 C.3       1 <0>         0.0216
     11 C2          0.0217   -0.4351    0.9094 C.3       1 <0>        -0.0251
     12 C3         -1.4872   -0.1696    1.0358 C.3       1 <0>         0.0030
     13 C4         -2.0401    0.3044   -0.3517 C.3       1 <0>         0.1528
     14 C5          2.2667    0.1821    0.5084 C.3       1 <0>         0.1890
     15 C6          0.7813   -0.9768    2.1199 C.3       1 <0>        -0.0425
     16 C7          0.3179    1.2630   -0.8881 C.3       1 <0>        -0.0140
     17 C8          2.2732   -0.6825    1.8064 C.3       1 <0>         0.0049
     18 C9         -1.2107    1.4868   -0.9399 C.3       1 <0>         0.0910
     19 C10        -3.6098    0.4855   -0.3427 C.3       1 <0>         0.0469
     20 C11        -2.2123   -1.4384    1.5164 C.3       1 <0>        -0.0117
     21 C12         0.7453    1.9732    1.5119 C.3       1 <0>        -0.0551
     22 C13        -3.7255   -1.2758    1.5313 C.3       1 <0>         0.1237
     23 C14        -4.2206   -0.8224    0.1804 C.2       1 <0>        -0.0198
     24 C15         3.1039   -1.9596    1.7236 C.3       1 <0>        -0.0583
     25 C16         3.3749    1.1905    0.5016 C.2       1 <0>         0.2359
     26 C17        -4.1018    1.6398    0.5600 C.3       1 <0>        -0.0492
     27 C18        -4.1062    0.8036   -1.7458 C.2       1 <0>        -0.0674
     28 C19        -5.1051   -1.5572   -0.5123 C.2       1 <0>        -0.0121
     29 C20        -4.9845    0.0734   -2.4393 C.2       1 <0>        -0.0179
     30 C21         3.7687   -1.2035   -0.6844 C.2       1 <0>         0.3078
     31 C22        -5.5568   -1.1552   -1.8602 C.2       1 <0>         0.1788
     32 C23         3.6620   -2.4662   -1.5068 C.3       1 <0>         0.0421
     33 C24         4.8362    3.2405   -0.5863 C.3       1 <0>         0.1429
     34 C25         3.9529   -2.2174   -2.9764 C.3       1 <0>        -0.0552
     35 H1          0.1349   -1.2008    0.1239 H         1 <0>         0.0311
     36 H2         -1.6598    0.6092    1.7853 H         1 <0>         0.0336
     37 H3          0.4780   -0.4588    3.0373 H         1 <0>         0.0272
     38 H4          0.5875   -2.0446    2.2677 H         1 <0>         0.0272
     39 H5          0.5669    0.5145   -1.6501 H         1 <0>         0.0298
     40 H6          0.7779    2.2065   -1.1900 H         1 <0>         0.0298
     41 H7          2.6544   -0.1068    2.6601 H         1 <0>         0.0342
     42 H8         -1.4571    1.6032   -2.0026 H         1 <0>         0.0626
     43 H9         -1.8817   -1.7073    2.5270 H         1 <0>         0.0300
     44 H10        -1.9471   -2.2940    0.8806 H         1 <0>         0.0300
     45 H11         1.2299    1.7402    2.4652 H         1 <0>         0.0237
     46 H12         1.2263    2.8775    1.1241 H         1 <0>         0.0237
     47 H13        -0.2841    2.2456    1.7534 H         1 <0>         0.0237
     48 H14        -4.0242   -0.5564    2.3006 H         1 <0>         0.0699
     49 H15         2.7659   -2.6612    0.9597 H         1 <0>         0.0234
     50 H16         4.1811   -1.7944    1.7299 H         1 <0>         0.0234
     51 H17         2.9413   -2.5106    2.6623 H         1 <0>         0.0234
     52 H18        -5.1811    1.5601    0.7466 H         1 <0>         0.0242
     53 H19        -3.6100    1.6493    1.5370 H         1 <0>         0.0242
     54 H20        -3.9494    2.6247    0.1072 H         1 <0>         0.0242
     55 H21        -3.7371    1.7125   -2.2159 H         1 <0>         0.0583
     56 H22        -2.0964    3.2221   -0.8943 H         1 <0>         0.2099
     57 H23        -5.5138   -2.4826   -0.1213 H         1 <0>         0.0656
     58 H24        -5.3042    0.3681   -3.4320 H         1 <0>         0.0653
     59 H25         4.3695   -3.1957   -1.0968 H         1 <0>         0.0375
     60 H26         2.6630   -2.9001   -1.3856 H         1 <0>         0.0375
     61 H27         5.7385    2.6375   -0.4556 H         1 <0>         0.0736
     62 H28         4.6588    3.8395    0.3106 H         1 <0>         0.0736
     63 H29         4.9563   -1.8001   -3.1099 H         1 <0>         0.0235
     64 H30         3.8880   -3.1507   -3.5436 H         1 <0>         0.0235
     65 H31         3.2378   -1.5046   -3.4001 H         1 <0>         0.0235
@<TRIPOS>BOND
     1    1   25 1
     2    1   33 1
     3    2   13 1
     4    3   22 1
     5    4   33 1
     6    5   14 1
     7    5   30 1
     8    6   18 1
     9    6   56 1
    10    7   25 2
    11    8   30 2
    12    9   31 2
    13   10   11 1
    14   10   14 1
    15   10   16 1
    16   10   21 1
    17   11   12 1
    18   11   15 1
    19   11   35 1
    20   12   13 1
    21   12   20 1
    22   12   36 1
    23   13   18 1
    24   13   19 1
    25   14   17 1
    26   14   25 1
    27   15   17 1
    28   15   37 1
    29   15   38 1
    30   16   18 1
    31   16   39 1
    32   16   40 1
    33   17   24 1
    34   17   41 1
    35   18   42 1
    36   19   23 1
    37   19   26 1
    38   19   27 1
    39   20   22 1
    40   20   43 1
    41   20   44 1
    42   21   45 1
    43   21   46 1
    44   21   47 1
    45   22   23 1
    46   22   48 1
    47   23   28 2
    48   24   49 1
    49   24   50 1
    50   24   51 1
    51   26   52 1
    52   26   53 1
    53   26   54 1
    54   27   29 2
    55   27   55 1
    56   28   31 1
    57   28   57 1
    58   29   31 1
    59   29   58 1
    60   30   32 1
    61   32   34 1
    62   32   59 1
    63   32   60 1
    64   33   61 1
    65   33   62 1
    66   34   63 1
    67   34   64 1
    68   34   65 1
