@<TRIPOS>MOLECULE
DB00270
   48    50     0     0     0
SMALL
USER_CHARGES

@<TRIPOS>ATOM
      1 O1          2.4234    0.6476    0.0189 O.3       1 <0>        -0.4586
      2 O2         -3.4118   -1.2235    0.1668 O.3       1 <0>        -0.4646
      3 O3          2.1097    1.5393    2.1320 O.2       1 <0>        -0.2452
      4 O4         -0.4262   -0.7806   -3.3991 O.3       1 <0>        -0.2416
      5 O5         -3.5973   -0.2686    2.2676 O.2       1 <0>        -0.2452
      6 N1         -1.4442    2.6452   -0.3535 N.pl3     1 <0>        -0.3207
      7 N2         -0.5935   -0.1626   -2.1717 N.2       1 <0>        -0.0486
      8 N3         -0.0043   -2.0920   -3.2631 N.2       1 <0>        -0.0489
      9 C1         -0.6466    0.2409    0.9154 C.3       1 <0>         0.0528
     10 C2          0.3238    1.3799    0.5820 C.2       1 <0>         0.0652
     11 C3         -2.1096    0.6041    0.6420 C.2       1 <0>         0.0652
     12 C4         -0.2724   -0.9924    0.1443 C.ar      1 <0>        -0.0043
     13 C5         -0.1021    2.5042   -0.0377 C.2       1 <0>         0.0157
     14 C6         -2.4396    1.7519    0.0081 C.2       1 <0>         0.0157
     15 C7         -0.2774   -1.0829   -1.2521 C.ar      1 <0>         0.1382
     16 C8          1.7163    1.2105    1.0282 C.2       1 <0>         0.3378
     17 C9          0.1155   -2.1567    0.8180 C.ar      1 <0>        -0.0554
     18 C10         0.7706    3.6613   -0.4428 C.3       1 <0>        -0.0260
     19 C11        -3.1266   -0.3327    1.1469 C.2       1 <0>         0.3373
     20 C12        -3.8369    2.1778   -0.3539 C.3       1 <0>        -0.0260
     21 C13         0.0971   -2.3095   -1.9458 C.ar      1 <0>         0.1345
     22 C14         0.4804   -3.3509    0.1425 C.ar      1 <0>        -0.0592
     23 C15         0.4857   -3.4742   -1.2589 C.ar      1 <0>        -0.0308
     24 C16         3.8072    0.4168    0.3025 C.3       1 <0>         0.0978
     25 C17         3.9246   -0.4935    1.5154 C.3       1 <0>        -0.0280
     26 C18         4.4765   -0.1842   -0.9242 C.3       1 <0>        -0.0280
     27 C19        -4.3931   -2.2079    0.5083 C.3       1 <0>         0.0820
     28 H1         -0.5601    0.0543    1.9956 H         1 <0>         0.0452
     29 H2         -1.7275    3.4967   -0.8254 H         1 <0>         0.1516
     30 H3          0.1457   -2.1653    1.9068 H         1 <0>         0.0621
     31 H4          0.4395    4.5776    0.0575 H         1 <0>         0.0290
     32 H5          0.7113    3.8180   -1.5251 H         1 <0>         0.0290
     33 H6          1.8242    3.5103   -0.1906 H         1 <0>         0.0290
     34 H7         -4.0824    3.1255    0.1373 H         1 <0>         0.0290
     35 H8         -4.5958    1.4476   -0.0592 H         1 <0>         0.0290
     36 H9         -3.9196    2.3187   -1.4370 H         1 <0>         0.0290
     37 H10         0.7710   -4.2135    0.7406 H         1 <0>         0.0618
     38 H11         0.7673   -4.3935   -1.7565 H         1 <0>         0.0640
     39 H12         4.2900    1.3800    0.5113 H         1 <0>         0.0728
     40 H13         4.9304   -0.9242    1.5768 H         1 <0>         0.0265
     41 H14         3.7689    0.0266    2.4634 H         1 <0>         0.0265
     42 H15         3.2043   -1.3175    1.4679 H         1 <0>         0.0265
     43 H16         5.5452   -0.3493   -0.7577 H         1 <0>         0.0265
     44 H17         4.3549    0.4789   -1.7875 H         1 <0>         0.0265
     45 H18         4.0100   -1.1383   -1.1935 H         1 <0>         0.0265
     46 H19        -4.5340   -2.8611   -0.3568 H         1 <0>         0.0661
     47 H20        -5.3469   -1.7262    0.7443 H         1 <0>         0.0661
     48 H21        -4.0454   -2.8122    1.3517 H         1 <0>         0.0661
@<TRIPOS>BOND
     1    1   16 1
     2    1   24 1
     3    2   19 1
     4    2   27 1
     5    3   16 2
     6    4    7 1
     7    4    8 1
     8    5   19 2
     9    6   13 1
    10    6   14 1
    11    6   29 1
    12    7   15 2
    13    8   21 2
    14    9   10 1
    15    9   11 1
    16    9   12 1
    17    9   28 1
    18   10   13 2
    19   10   16 1
    20   11   14 2
    21   11   19 1
    22   12   15 ar
    23   12   17 ar
    24   13   18 1
    25   14   20 1
    26   15   21 ar
    27   17   22 ar
    28   17   30 1
    29   18   31 1
    30   18   32 1
    31   18   33 1
    32   20   34 1
    33   20   35 1
    34   20   36 1
    35   21   23 ar
    36   22   23 ar
    37   22   37 1
    38   23   38 1
    39   24   25 1
    40   24   26 1
    41   24   39 1
    42   25   40 1
    43   25   41 1
    44   25   42 1
    45   26   43 1
    46   26   44 1
    47   26   45 1
    48   27   46 1
    49   27   47 1
    50   27   48 1
