@<TRIPOS>MOLECULE
DB00903
   31    31     0     0     0
SMALL
USER_CHARGES

@<TRIPOS>ATOM
      1 Cl1         1.1024   -2.6772    0.1513 Cl        1 <0>        -0.0812
      2 Cl2        -2.0762   -2.9708    0.0714 Cl        1 <0>        -0.0782
      3 O1         -3.4941   -0.4788    0.8114 O.3       1 <0>        -0.4793
      4 O2          2.6835   -0.1473    2.0083 O.2       1 <0>        -0.2870
      5 O3         -6.1480    0.5906   -1.3510 O.3       1 <0>        -0.4783
      6 O4         -5.8583   -1.3617   -0.2139 O.2       1 <0>        -0.2472
      7 C1          0.6217   -0.1234    0.9058 C.ar      1 <0>         0.0418
      8 C2          2.8154    0.5705   -0.2495 C.2       1 <0>        -0.0074
      9 C3          2.0871    0.0758    0.9589 C.2       1 <0>         0.1901
     10 C4          4.3165    0.6495   -0.1665 C.3       1 <0>        -0.0274
     11 C5          0.0674   -1.3400    0.5484 C.ar      1 <0>         0.0736
     12 C6         -0.1703    0.9661    1.2293 C.ar      1 <0>        -0.0460
     13 C7         -2.1337   -0.3858    0.8358 C.ar      1 <0>         0.1410
     14 C8         -1.3208   -1.4726    0.5130 C.ar      1 <0>         0.1015
     15 C9         -1.5584    0.8335    1.1937 C.ar      1 <0>        -0.0177
     16 C10         4.9772   -0.6798   -0.5051 C.3       1 <0>        -0.0612
     17 C11         2.1388    0.8319   -1.3778 C.2       1 <0>        -0.0919
     18 C12        -4.1861    0.3957   -0.0766 C.3       1 <0>         0.1858
     19 C13        -5.4673   -0.2477   -0.5292 C.2       1 <0>         0.3427
     20 H1          4.6309    0.9815    0.8299 H         1 <0>         0.0311
     21 H2          4.6861    1.4134   -0.8625 H         1 <0>         0.0311
     22 H3          0.2677    1.9192    1.5119 H         1 <0>         0.0626
     23 H4         -2.1769    1.6872    1.4570 H         1 <0>         0.0655
     24 H5          6.0663   -0.5843   -0.4475 H         1 <0>         0.0233
     25 H6          4.6705   -1.4658    0.1930 H         1 <0>         0.0233
     26 H7          4.7206   -1.0049   -1.5189 H         1 <0>         0.0233
     27 H8          2.6723    1.1514   -2.2687 H         1 <0>         0.0539
     28 H9          1.0641    0.7497   -1.4808 H         1 <0>         0.0539
     29 H10        -4.4276    1.3211    0.4562 H         1 <0>         0.0815
     30 H11        -3.5807    0.6082   -0.9661 H         1 <0>         0.0815
     31 H12        -6.9903    0.1949   -1.6613 H         1 <0>         0.2952
@<TRIPOS>BOND
     1    1   11 1
     2    2   14 1
     3    3   13 1
     4    3   18 1
     5    4    9 2
     6    5   19 1
     7    5   31 1
     8    6   19 2
     9    7    9 1
    10    7   11 ar
    11    7   12 ar
    12    8    9 1
    13    8   10 1
    14    8   17 2
    15   10   16 1
    16   10   20 1
    17   10   21 1
    18   11   14 ar
    19   12   15 ar
    20   12   22 1
    21   13   14 ar
    22   13   15 ar
    23   15   23 1
    24   16   24 1
    25   16   25 1
    26   16   26 1
    27   17   27 1
    28   17   28 1
    29   18   19 1
    30   18   29 1
    31   18   30 1
