@<TRIPOS>MOLECULE
DB00813
   53    55     0     0     0
SMALL
USER_CHARGES

@<TRIPOS>ATOM
      1 O1          3.6423   -2.8336    0.2331 O.2       1 <0>        -0.2753
      2 N1         -1.3797   -0.0336    0.4601 N.3       1 <0>        -0.3019
      3 N2          2.7962   -0.6244    0.0826 N.am      1 <0>        -0.2683
      4 C1          1.3985   -0.9296    0.2611 C.3       1 <0>         0.0334
      5 C2          0.8484   -0.2488    1.5142 C.3       1 <0>        -0.0210
      6 C3          0.5838   -0.5163   -0.9649 C.3       1 <0>        -0.0210
      7 C4         -0.6565   -0.4824    1.6580 C.3       1 <0>         0.0006
      8 C5         -0.9121   -0.7423   -0.7393 C.3       1 <0>         0.0006
      9 C6         -2.8205   -0.2173    0.6338 C.3       1 <0>         0.0029
     10 C7         -3.5936    0.3663   -0.5494 C.3       1 <0>        -0.0149
     11 C8          3.1856    0.7709   -0.1088 C.ar      1 <0>         0.0366
     12 C9          3.8173   -1.6216    0.0840 C.2       1 <0>         0.2198
     13 C10        -5.0823    0.2035   -0.3723 C.ar      1 <0>        -0.0462
     14 C11         5.2385   -1.0882   -0.0730 C.3       1 <0>         0.0217
     15 C12         3.2294    1.2449   -1.3860 C.ar      1 <0>        -0.0403
     16 C13         3.4772    1.5029    1.0033 C.ar      1 <0>        -0.0403
     17 C14         6.2851   -2.1920   -0.0799 C.3       1 <0>        -0.0570
     18 C15        -5.7043   -0.9389   -0.8529 C.ar      1 <0>        -0.0585
     19 C16        -5.8049    1.1989    0.2680 C.ar      1 <0>        -0.0585
     20 C17         3.6003    2.5772   -1.5683 C.ar      1 <0>        -0.0600
     21 C18         3.8478    2.8353    0.8210 C.ar      1 <0>        -0.0600
     22 C19         3.9094    3.3723   -0.4649 C.ar      1 <0>        -0.0616
     23 C20        -7.0815   -1.0894   -0.6894 C.ar      1 <0>        -0.0615
     24 C21        -7.1818    1.0484    0.4316 C.ar      1 <0>        -0.0615
     25 C22        -7.8201   -0.0958   -0.0473 C.ar      1 <0>        -0.0617
     26 H1          1.2951   -2.0147    0.3890 H         1 <0>         0.0505
     27 H2          0.9988    0.8360    1.4859 H         1 <0>         0.0296
     28 H3          1.3671   -0.6198    2.4065 H         1 <0>         0.0296
     29 H4          0.9151   -1.0792   -1.8462 H         1 <0>         0.0296
     30 H5          0.7142    0.5463   -1.1984 H         1 <0>         0.0296
     31 H6         -0.8462   -1.5461    1.8539 H         1 <0>         0.0427
     32 H7         -1.0057    0.0766    2.5350 H         1 <0>         0.0427
     33 H8         -1.3940   -0.3751   -1.6487 H         1 <0>         0.0427
     34 H9         -1.1174   -1.8185   -0.6667 H         1 <0>         0.0427
     35 H10        -3.0688   -1.2794    0.7644 H         1 <0>         0.0430
     36 H11        -3.1446    0.2962    1.5486 H         1 <0>         0.0430
     37 H12        -3.3420   -0.1139   -1.5001 H         1 <0>         0.0326
     38 H13        -3.3527    1.4303   -0.6761 H         1 <0>         0.0326
     39 H14         5.4669   -0.4126    0.7571 H         1 <0>         0.0356
     40 H15         5.3230   -0.5433   -1.0180 H         1 <0>         0.0356
     41 H16         3.0020    0.6263   -2.2477 H         1 <0>         0.0636
     42 H17         3.4431    1.0857    2.0042 H         1 <0>         0.0636
     43 H18         7.2863   -1.7663   -0.1997 H         1 <0>         0.0234
     44 H19         6.1116   -2.8935   -0.9025 H         1 <0>         0.0234
     45 H20         6.2657   -2.7591    0.8566 H         1 <0>         0.0234
     46 H21        -5.1379   -1.7199   -1.3521 H         1 <0>         0.0620
     47 H22        -5.3166    2.0927    0.6458 H         1 <0>         0.0620
     48 H23         3.6513    2.9944   -2.5698 H         1 <0>         0.0618
     49 H24         4.0916    3.4535    1.6800 H         1 <0>         0.0618
     50 H25         4.1996    4.4092   -0.6070 H         1 <0>         0.0618
     51 H26        -7.5784   -1.9806   -1.0615 H         1 <0>         0.0618
     52 H27        -7.7571    1.8218    0.9322 H         1 <0>         0.0618
     53 H28        -8.8923   -0.2131    0.0805 H         1 <0>         0.0618
@<TRIPOS>BOND
     1    1   12 2
     2    2    7 1
     3    2    8 1
     4    2    9 1
     5    3    4 1
     6    3   11 1
     7    3   12 am
     8    4    5 1
     9    4    6 1
    10    4   26 1
    11    5    7 1
    12    5   27 1
    13    5   28 1
    14    6    8 1
    15    6   29 1
    16    6   30 1
    17    7   31 1
    18    7   32 1
    19    8   33 1
    20    8   34 1
    21    9   10 1
    22    9   35 1
    23    9   36 1
    24   10   13 1
    25   10   37 1
    26   10   38 1
    27   11   15 ar
    28   11   16 ar
    29   12   14 1
    30   13   18 ar
    31   13   19 ar
    32   14   17 1
    33   14   39 1
    34   14   40 1
    35   15   20 ar
    36   15   41 1
    37   16   21 ar
    38   16   42 1
    39   17   43 1
    40   17   44 1
    41   17   45 1
    42   18   23 ar
    43   18   46 1
    44   19   24 ar
    45   19   47 1
    46   20   22 ar
    47   20   48 1
    48   21   22 ar
    49   21   49 1
    50   22   50 1
    51   23   25 ar
    52   23   51 1
    53   24   25 ar
    54   24   52 1
    55   25   53 1
