@<TRIPOS>MOLECULE
DB00846
   64    68     0     0     0
SMALL
USER_CHARGES

@<TRIPOS>ATOM
      1 F1         -3.6928    2.7112   -1.9288 F         1 <0>        -0.2407
      2 O1          2.8276    0.4932    0.8951 O.3       1 <0>        -0.3320
      3 O2          3.4622    1.8523   -0.9144 O.3       1 <0>        -0.3426
      4 O3         -1.2357   -2.7299   -0.0164 O.3       1 <0>        -0.3915
      5 O4          4.5950   -1.3810   -1.1093 O.2       1 <0>        -0.2918
      6 O5          4.8962   -2.8151    1.2259 O.3       1 <0>        -0.3874
      7 O6         -5.6129    1.9635    2.5183 O.2       1 <0>        -0.2927
      8 C1          1.2055   -0.8371   -0.4224 C.3       1 <0>         0.0121
      9 C2          0.4602    0.4637   -0.7987 C.3       1 <0>        -0.0267
     10 C3         -1.0317    0.2489   -1.0856 C.3       1 <0>        -0.0286
     11 C4          2.6463   -0.2801   -0.2887 C.3       1 <0>         0.1640
     12 C5         -1.7077   -0.3278    0.2136 C.3       1 <0>        -0.0026
     13 C6          1.3470    1.0892   -1.8770 C.3       1 <0>        -0.0196
     14 C7          2.7815    0.7176   -1.4423 C.3       1 <0>         0.0987
     15 C8          0.5704   -1.3758    0.8743 C.3       1 <0>        -0.0178
     16 C9         -0.9587   -1.5771    0.7656 C.3       1 <0>         0.0597
     17 C10        -3.2683   -0.4732    0.0381 C.3       1 <0>        -0.0022
     18 C11        -1.6977    1.5641   -1.5354 C.3       1 <0>        -0.0143
     19 C12         1.1696   -1.9133   -1.5419 C.3       1 <0>        -0.0561
     20 C13        -3.7687    0.9287   -0.3440 C.2       1 <0>        -0.0266
     21 C14        -3.2173    1.4635   -1.6428 C.3       1 <0>         0.1232
     22 C15         3.7056   -1.3426   -0.2604 C.2       1 <0>         0.1931
     23 C16         3.5024    1.6929    0.5050 C.3       1 <0>         0.1663
     24 C17        -3.9858   -0.9646    1.3269 C.3       1 <0>        -0.0365
     25 C18        -3.6690   -1.4840   -1.0669 C.3       1 <0>        -0.0554
     26 C19        -4.1063    0.1024    2.3990 C.3       1 <0>         0.0107
     27 C20        -4.5296    1.7027    0.4475 C.2       1 <0>        -0.0167
     28 C21         3.6123   -2.3525    0.8636 C.3       1 <0>         0.1053
     29 C22         2.8122    2.8830    1.1597 C.3       1 <0>        -0.0108
     30 C23         4.9620    1.6151    0.9440 C.3       1 <0>        -0.0108
     31 C24        -4.8414    1.2922    1.8371 C.2       1 <0>         0.1562
     32 H1          0.5014    1.1491    0.0619 H         1 <0>         0.0311
     33 H2         -1.1475   -0.4572   -1.9116 H         1 <0>         0.0308
     34 H3         -1.5555    0.4432    0.9867 H         1 <0>         0.0337
     35 H4          1.1233    0.6428   -2.8527 H         1 <0>         0.0294
     36 H5          1.1998    2.1714   -1.9508 H         1 <0>         0.0294
     37 H6          3.3382    0.3535   -2.3113 H         1 <0>         0.0631
     38 H7          0.7588   -0.6814    1.7023 H         1 <0>         0.0297
     39 H8          1.0113   -2.3373    1.1511 H         1 <0>         0.0297
     40 H9         -1.3198   -1.7981    1.7755 H         1 <0>         0.0596
     41 H10        -1.2978    1.8791   -2.5069 H         1 <0>         0.0299
     42 H11        -1.4426    2.3724   -0.8362 H         1 <0>         0.0299
     43 H12         1.4487   -2.8989   -1.1551 H         1 <0>         0.0236
     44 H13         0.2016   -2.0192   -2.0286 H         1 <0>         0.0236
     45 H14         1.8706   -1.6847   -2.3529 H         1 <0>         0.0236
     46 H15        -3.5089    0.8251   -2.4817 H         1 <0>         0.0699
     47 H16        -3.4985   -1.8536    1.7402 H         1 <0>         0.0278
     48 H17        -5.0061   -1.2867    1.0690 H         1 <0>         0.0278
     49 H18        -3.5707   -2.5199   -0.7264 H         1 <0>         0.0238
     50 H19        -4.7229   -1.3537   -1.3455 H         1 <0>         0.0238
     51 H20        -3.0870   -1.3805   -1.9860 H         1 <0>         0.0238
     52 H21        -1.3355   -2.4732   -0.9445 H         1 <0>         0.2098
     53 H22        -3.1295    0.4266    2.7708 H         1 <0>         0.0345
     54 H23        -4.6806   -0.2951    3.2431 H         1 <0>         0.0345
     55 H24        -4.8553    2.6931    0.1492 H         1 <0>         0.0653
     56 H25         3.0211   -3.2097    0.5362 H         1 <0>         0.0637
     57 H26         3.1666   -1.9096    1.7566 H         1 <0>         0.0637
     58 H27         2.7973    2.7841    2.2502 H         1 <0>         0.0281
     59 H28         3.3016    3.8247    0.8899 H         1 <0>         0.0281
     60 H29         1.7713    2.9590    0.8279 H         1 <0>         0.0281
     61 H30         5.5041    2.5298    0.6810 H         1 <0>         0.0281
     62 H31         5.0432    1.4463    2.0229 H         1 <0>         0.0281
     63 H32         5.4793    0.7876    0.4474 H         1 <0>         0.0281
     64 H33         5.3879   -2.0592    1.5898 H         1 <0>         0.2100
@<TRIPOS>BOND
     1    1   21 1
     2    2   11 1
     3    2   23 1
     4    3   14 1
     5    3   23 1
     6    4   16 1
     7    4   52 1
     8    5   22 2
     9    6   28 1
    10    6   64 1
    11    7   31 2
    12    8    9 1
    13    8   11 1
    14    8   15 1
    15    8   19 1
    16    9   10 1
    17    9   13 1
    18    9   32 1
    19   10   12 1
    20   10   18 1
    21   10   33 1
    22   11   14 1
    23   11   22 1
    24   12   16 1
    25   12   17 1
    26   12   34 1
    27   13   14 1
    28   13   35 1
    29   13   36 1
    30   14   37 1
    31   15   16 1
    32   15   38 1
    33   15   39 1
    34   16   40 1
    35   17   20 1
    36   17   24 1
    37   17   25 1
    38   18   21 1
    39   18   41 1
    40   18   42 1
    41   19   43 1
    42   19   44 1
    43   19   45 1
    44   20   21 1
    45   20   27 2
    46   21   46 1
    47   22   28 1
    48   23   29 1
    49   23   30 1
    50   24   26 1
    51   24   47 1
    52   24   48 1
    53   25   49 1
    54   25   50 1
    55   25   51 1
    56   26   31 1
    57   26   53 1
    58   26   54 1
    59   27   31 1
    60   27   55 1
    61   28   56 1
    62   28   57 1
    63   29   58 1
    64   29   59 1
    65   29   60 1
    66   30   61 1
    67   30   62 1
    68   30   63 1
