@<TRIPOS>MOLECULE
DB00792
   40    41     0     0     0
SMALL
USER_CHARGES

@<TRIPOS>ATOM
      1 N1          0.1696    0.0688    0.6205 N.pl3     1 <0>        -0.3096
      2 N2         -3.1952   -1.4354    0.1641 N.3       1 <0>        -0.3069
      3 N3          0.5623    2.3624    1.1318 N.ar      1 <0>        -0.2403
      4 C1         -0.8060   -0.8851    0.1498 C.3       1 <0>         0.0266
      5 C2         -2.1889   -0.4943    0.6550 C.3       1 <0>         0.0141
      6 C3          1.2431   -0.4021    1.4975 C.3       1 <0>         0.0386
      7 C4          0.0980    1.4234    0.2660 C.ar      1 <0>         0.1215
      8 C5          2.4513   -0.7895    0.6906 C.ar      1 <0>        -0.0301
      9 C6         -3.1927   -1.4697   -1.2980 C.3       1 <0>        -0.0130
     10 C7         -4.5208   -1.0736    0.6647 C.3       1 <0>        -0.0130
     11 C8          2.5806   -2.0944    0.2331 C.ar      1 <0>        -0.0571
     12 C9          3.4238    0.1626    0.4127 C.ar      1 <0>        -0.0571
     13 C10        -0.4531    1.7414   -0.9724 C.ar      1 <0>        -0.0217
     14 C11         3.7017   -2.4536   -0.5152 C.ar      1 <0>        -0.0615
     15 C12         4.5448   -0.1965   -0.3358 C.ar      1 <0>        -0.0615
     16 C13        -0.5311    3.0805   -1.3385 C.ar      1 <0>        -0.0571
     17 C14         4.6837   -1.5046   -0.7998 C.ar      1 <0>        -0.0617
     18 C15         0.4699    3.6535    0.7417 C.ar      1 <0>         0.0297
     19 C16        -0.0629    4.0610   -0.4707 C.ar      1 <0>        -0.0435
     20 H1         -0.7262   -0.9629   -0.9375 H         1 <0>         0.0477
     21 H2         -0.5726   -1.8915    0.5223 H         1 <0>         0.0477
     22 H3         -2.1771   -0.5133    1.7530 H         1 <0>         0.0442
     23 H4         -2.4611    0.5276    0.3659 H         1 <0>         0.0442
     24 H5          0.9023   -1.2639    2.0871 H         1 <0>         0.0513
     25 H6          1.5147    0.3471    2.2523 H         1 <0>         0.0513
     26 H7         -2.3287   -2.0112   -1.6943 H         1 <0>         0.0391
     27 H8         -3.2334   -0.4690   -1.7434 H         1 <0>         0.0391
     28 H9         -4.0617   -2.0288   -1.6670 H         1 <0>         0.0391
     29 H10        -5.2666   -1.8121    0.3501 H         1 <0>         0.0391
     30 H11        -4.8424   -0.0869    0.3119 H         1 <0>         0.0391
     31 H12        -4.5309   -1.0684    1.7604 H         1 <0>         0.0391
     32 H13         1.8235   -2.8429    0.4489 H         1 <0>         0.0621
     33 H14         3.3287    1.1838    0.7703 H         1 <0>         0.0621
     34 H15        -0.8086    1.0018   -1.6801 H         1 <0>         0.0652
     35 H16         3.8101   -3.4721   -0.8764 H         1 <0>         0.0618
     36 H17         5.3096    0.5422   -0.5568 H         1 <0>         0.0618
     37 H18        -0.9516    3.3600   -2.2997 H         1 <0>         0.0619
     38 H19         5.5566   -1.7843   -1.3824 H         1 <0>         0.0618
     39 H20         0.8494    4.3789    1.4536 H         1 <0>         0.0830
     40 H21        -0.1122    5.1109   -0.7356 H         1 <0>         0.0633
@<TRIPOS>BOND
     1    1    4 1
     2    1    6 1
     3    1    7 1
     4    2    5 1
     5    2    9 1
     6    2   10 1
     7    3    7 ar
     8    3   18 ar
     9    4    5 1
    10    4   20 1
    11    4   21 1
    12    5   22 1
    13    5   23 1
    14    6    8 1
    15    6   24 1
    16    6   25 1
    17    7   13 ar
    18    8   11 ar
    19    8   12 ar
    20    9   26 1
    21    9   27 1
    22    9   28 1
    23   10   29 1
    24   10   30 1
    25   10   31 1
    26   11   14 ar
    27   11   32 1
    28   12   15 ar
    29   12   33 1
    30   13   16 ar
    31   13   34 1
    32   14   17 ar
    33   14   35 1
    34   15   17 ar
    35   15   36 1
    36   16   19 ar
    37   16   37 1
    38   17   38 1
    39   18   19 ar
    40   18   39 1
    41   19   40 1
