@<TRIPOS>MOLECULE
DB00353
   50    53     0     0     0
SMALL
USER_CHARGES

@<TRIPOS>ATOM
      1 O1          1.9088    0.4371    1.4175 O.2       1 <0>        -0.2751
      2 O2          5.4184   -0.3782   -1.9618 O.3       1 <0>        -0.3932
      3 N1         -0.9923   -2.2523   -0.1418 N.3       1 <0>        -0.2971
      4 N2         -6.2031    0.7215   -0.1469 N.pl3     1 <0>        -0.3604
      5 N3          2.9658    0.2783   -0.6505 N.am      1 <0>        -0.3098
      6 C1         -2.0466   -1.2753    0.2514 C.3       1 <0>         0.0397
      7 C2         -1.6413    0.2038   -0.0254 C.2       1 <0>        -0.0254
      8 C3         -3.4084   -1.6782   -0.4273 C.3       1 <0>        -0.0059
      9 C4          0.7096   -0.4911   -0.4257 C.3       1 <0>         0.0669
     10 C5          0.3367   -1.7930    0.2876 C.3       1 <0>         0.0138
     11 C6         -4.4181   -0.5962   -0.2817 C.2       1 <0>        -0.0200
     12 C7         -2.6977    1.2354    0.0775 C.2       1 <0>        -0.0112
     13 C8         -3.9965    0.7301   -0.0544 C.2       1 <0>         0.0103
     14 C9         -0.3832    0.5313   -0.3679 C.2       1 <0>        -0.0658
     15 C10        -5.1126    1.5464    0.0247 C.2       1 <0>         0.0473
     16 C11        -1.2429   -3.5900    0.4049 C.3       1 <0>        -0.0121
     17 C12         1.9115    0.1164    0.2318 C.2       1 <0>         0.2214
     18 C13        -5.7919   -0.5804   -0.3361 C.2       1 <0>         0.0060
     19 C14        -2.5659    2.6123    0.2947 C.2       1 <0>        -0.0536
     20 C15        -4.9988    2.9206    0.2396 C.2       1 <0>        -0.0378
     21 C16        -3.6992    3.4345    0.3727 C.2       1 <0>        -0.0592
     22 C17         4.2315    0.8631   -0.2709 C.3       1 <0>         0.0459
     23 C18         4.8934    0.0601    0.8569 C.3       1 <0>        -0.0352
     24 C19         5.1485    0.9378   -1.4921 C.3       1 <0>         0.0625
     25 C20         6.1975    0.6843    1.3370 C.3       1 <0>        -0.0635
     26 H1         -2.1907   -1.3340    1.3423 H         1 <0>         0.0515
     27 H2         -3.8045   -2.5952    0.0229 H         1 <0>         0.0332
     28 H3         -3.2519   -1.8693   -1.4970 H         1 <0>         0.0332
     29 H4          0.9071   -0.7055   -1.4837 H         1 <0>         0.0450
     30 H5          1.0975   -2.5433    0.0335 H         1 <0>         0.0437
     31 H6          0.3683   -1.6790    1.3805 H         1 <0>         0.0437
     32 H7         -0.1200    1.5556   -0.6199 H         1 <0>         0.0583
     33 H8         -0.4339   -4.2764    0.1283 H         1 <0>         0.0391
     34 H9         -2.1547   -4.0290   -0.0100 H         1 <0>         0.0391
     35 H10        -1.3229   -3.5807    1.4978 H         1 <0>         0.0391
     36 H11        -6.5177   -1.3656   -0.4940 H         1 <0>         0.0810
     37 H12        -1.5858    3.0658    0.4172 H         1 <0>         0.0624
     38 H13        -7.1665    1.0265   -0.1403 H         1 <0>         0.1653
     39 H14        -5.8687    3.5645    0.3026 H         1 <0>         0.0638
     40 H15         2.8244    0.0433   -1.6283 H         1 <0>         0.1491
     41 H16        -3.5688    4.5009    0.5443 H         1 <0>         0.0618
     42 H17         4.0195    1.8790    0.0844 H         1 <0>         0.0521
     43 H18         4.2317   -0.0023    1.7264 H         1 <0>         0.0281
     44 H19         5.0753   -0.9763    0.5469 H         1 <0>         0.0281
     45 H20         4.6701    1.4936   -2.3064 H         1 <0>         0.0575
     46 H21         6.0976    1.4345   -1.2746 H         1 <0>         0.0575
     47 H22         6.0627    1.7415    1.5865 H         1 <0>         0.0230
     48 H23         6.9901    0.5974    0.5887 H         1 <0>         0.0230
     49 H24         6.5468    0.1681    2.2375 H         1 <0>         0.0230
     50 H25         4.5719   -0.7922   -2.1991 H         1 <0>         0.2095
@<TRIPOS>BOND
     1    1   17 2
     2    2   24 1
     3    2   50 1
     4    3    6 1
     5    3   10 1
     6    3   16 1
     7    4   15 1
     8    4   18 2
     9    4   38 1
    10    5   17 am
    11    5   22 1
    12    5   40 1
    13    6    7 1
    14    6    8 1
    15    6   26 1
    16    7   12 1
    17    7   14 2
    18    8   11 1
    19    8   27 1
    20    8   28 1
    21    9   10 1
    22    9   14 1
    23    9   17 1
    24    9   29 1
    25   10   30 1
    26   10   31 1
    27   11   13 2
    28   11   18 1
    29   12   13 1
    30   12   19 2
    31   13   15 2
    32   14   32 1
    33   15   20 1
    34   16   33 1
    35   16   34 1
    36   16   35 1
    37   18   36 1
    38   19   21 1
    39   19   37 1
    40   20   21 2
    41   20   39 1
    42   21   41 1
    43   22   23 1
    44   22   24 1
    45   22   42 1
    46   23   25 1
    47   23   43 1
    48   23   44 1
    49   24   45 1
    50   24   46 1
    51   25   47 1
    52   25   48 1
    53   25   49 1
