@<TRIPOS>MOLECULE
DB00693
   37    41     0     0     0
SMALL
USER_CHARGES

@<TRIPOS>ATOM
      1 O1         -0.1522    0.7541    1.9571 O.3       1 <0>        -0.4398
      2 O2          0.5011   -2.3941   -0.5474 O.3       1 <0>        -0.4549
      3 O3         -0.5606    2.7761    3.0075 O.2       1 <0>        -0.2449
      4 O4          5.1912   -1.8929   -0.1627 O.3       1 <0>        -0.5066
      5 O5         -4.0472   -3.6819   -0.3225 O.3       1 <0>        -0.5066
      6 C1         -0.0293    0.2433    0.5916 C.3       1 <0>         0.1963
      7 C2         -0.2549    1.4821   -0.2141 C.ar      1 <0>         0.0190
      8 C3          1.3659   -0.3251    0.4232 C.ar      1 <0>         0.0474
      9 C4         -1.1054   -0.8033    0.3799 C.ar      1 <0>         0.0474
     10 C5         -0.4774    2.5556    0.6293 C.ar      1 <0>         0.0667
     11 C6          1.5414   -1.5907   -0.1477 C.ar      1 <0>         0.1395
     12 C7         -0.7766   -2.0395   -0.1879 C.ar      1 <0>         0.1395
     13 C8         -0.4137    2.0996    2.0096 C.2       1 <0>         0.3411
     14 C9         -0.2654    1.6619   -1.5885 C.ar      1 <0>        -0.0533
     15 C10         2.5098    0.4011    0.7995 C.ar      1 <0>        -0.0471
     16 C11        -2.4496   -0.5585    0.7122 C.ar      1 <0>        -0.0471
     17 C12        -0.7164    3.8355    0.1641 C.ar      1 <0>        -0.0474
     18 C13         2.8231   -2.1142   -0.3484 C.ar      1 <0>         0.0226
     19 C14        -1.7630   -3.0023   -0.4274 C.ar      1 <0>         0.0226
     20 C15        -0.5045    2.9450   -2.0891 C.ar      1 <0>        -0.0613
     21 C16         3.7886   -0.1242    0.6057 C.ar      1 <0>        -0.0195
     22 C17        -3.4328   -1.5220    0.4795 C.ar      1 <0>        -0.0195
     23 C18        -0.7284    4.0246   -1.2181 C.ar      1 <0>        -0.0610
     24 C19         3.9451   -1.3811    0.0299 C.ar      1 <0>         0.1204
     25 C20        -3.0895   -2.7433   -0.0922 C.ar      1 <0>         0.1204
     26 H1         -0.0930    0.8324   -2.2659 H         1 <0>         0.0622
     27 H2          2.4176    1.3892    1.2432 H         1 <0>         0.0624
     28 H3         -2.7477    0.3899    1.1518 H         1 <0>         0.0624
     29 H4         -0.8889    4.6661    0.8390 H         1 <0>         0.0626
     30 H5          2.9384   -3.0981   -0.7972 H         1 <0>         0.0691
     31 H6         -1.4946   -3.9575   -0.8726 H         1 <0>         0.0691
     32 H7         -0.5175    3.1106   -3.1631 H         1 <0>         0.0618
     33 H8          4.6578    0.4560    0.9034 H         1 <0>         0.0654
     34 H9         -4.4634   -1.3033    0.7461 H         1 <0>         0.0654
     35 H10        -0.9125    5.0145   -1.6266 H         1 <0>         0.0618
     36 H11         5.1116   -2.7717   -0.5719 H         1 <0>         0.2921
     37 H12        -4.9068   -3.3338   -0.0294 H         1 <0>         0.2921
@<TRIPOS>BOND
     1    1    6 1
     2    1   13 1
     3    2   11 1
     4    2   12 1
     5    3   13 2
     6    4   24 1
     7    4   36 1
     8    5   25 1
     9    5   37 1
    10    6    7 1
    11    6    8 1
    12    6    9 1
    13    7   10 ar
    14    7   14 ar
    15    8   11 ar
    16    8   15 ar
    17    9   12 ar
    18    9   16 ar
    19   10   13 1
    20   10   17 ar
    21   11   18 ar
    22   12   19 ar
    23   14   20 ar
    24   14   26 1
    25   15   21 ar
    26   15   27 1
    27   16   22 ar
    28   16   28 1
    29   17   23 ar
    30   17   29 1
    31   18   24 ar
    32   18   30 1
    33   19   25 ar
    34   19   31 1
    35   20   23 ar
    36   20   32 1
    37   21   24 ar
    38   21   33 1
    39   22   25 ar
    40   22   34 1
    41   23   35 1
