@<TRIPOS>MOLECULE
DB00409
   45    46     0     0     0
SMALL
USER_CHARGES

@<TRIPOS>ATOM
      1 Br1        -4.6696   -3.5791   -0.2147 Br        1 <0>        -0.0465
      2 O1         -1.0204    1.0353   -1.2462 O.2       1 <0>        -0.2699
      3 O2         -1.9611   -2.1178   -0.6213 O.3       1 <0>        -0.4931
      4 O3         -3.3329    2.2215    0.8560 O.3       1 <0>        -0.4942
      5 N1          3.3189    0.2692    0.3208 N.3       1 <0>        -0.2982
      6 N2         -0.3808    0.4798    0.9139 N.am      1 <0>        -0.3097
      7 C1          1.9069   -0.1379    0.3359 C.3       1 <0>         0.0260
      8 C2          1.9134   -1.3428    1.2793 C.3       1 <0>        -0.0347
      9 C3          3.3355   -1.8903    1.2237 C.3       1 <0>        -0.0387
     10 C4          4.0723   -0.9853    0.2505 C.3       1 <0>        -0.0007
     11 C5          0.9670    0.9572    0.8242 C.3       1 <0>         0.0275
     12 C6          3.6525    1.1549   -0.7880 C.3       1 <0>        -0.0036
     13 C7          5.1168    1.5422   -0.7679 C.3       1 <0>        -0.0523
     14 C8         -1.2818    0.5580   -0.1452 C.2       1 <0>         0.2513
     15 C9         -2.6504    0.0426    0.1163 C.ar      1 <0>         0.1208
     16 C10        -2.9299   -1.2865   -0.1370 C.ar      1 <0>         0.1496
     17 C11        -3.6080    0.9099    0.6063 C.ar      1 <0>         0.1358
     18 C12        -4.2160   -1.7671    0.1095 C.ar      1 <0>         0.0604
     19 C13        -4.8941    0.4297    0.8526 C.ar      1 <0>        -0.0179
     20 C14        -5.1980   -0.9089    0.6043 C.ar      1 <0>        -0.0407
     21 C15        -1.8422   -2.2131   -2.0380 C.3       1 <0>         0.0789
     22 C16        -3.5411    3.1414   -0.2133 C.3       1 <0>         0.0788
     23 H1          1.5958   -0.4824   -0.6611 H         1 <0>         0.0478
     24 H2          1.6731   -1.0657    2.3129 H         1 <0>         0.0281
     25 H3          1.1875   -2.0991    0.9604 H         1 <0>         0.0281
     26 H4          3.3562   -2.9349    0.8972 H         1 <0>         0.0278
     27 H5          3.7899   -1.8406    2.2203 H         1 <0>         0.0278
     28 H6          4.0428   -1.4240   -0.7553 H         1 <0>         0.0427
     29 H7          5.1176   -0.8715    0.5546 H         1 <0>         0.0427
     30 H8          0.9878    1.8213    0.1518 H         1 <0>         0.0477
     31 H9          1.2534    1.3080    1.8222 H         1 <0>         0.0477
     32 H10         3.4071    0.7020   -1.7570 H         1 <0>         0.0424
     33 H11         3.0683    2.0787   -0.7098 H         1 <0>         0.0424
     34 H12        -0.6870    0.0700    1.7919 H         1 <0>         0.1491
     35 H13         5.3053    2.3191   -1.5168 H         1 <0>         0.0242
     36 H14         5.7728    0.6997   -1.0085 H         1 <0>         0.0242
     37 H15         5.4116    1.9463    0.2067 H         1 <0>         0.0242
     38 H16        -5.6642    1.0920    1.2388 H         1 <0>         0.0655
     39 H17        -6.2057   -1.2654    0.8024 H         1 <0>         0.0631
     40 H18        -1.3424   -3.1564   -2.2757 H         1 <0>         0.0660
     41 H19        -2.8188   -2.2023   -2.5332 H         1 <0>         0.0660
     42 H20        -1.2277   -1.3925   -2.4182 H         1 <0>         0.0660
     43 H21        -3.1579    4.1177    0.0961 H         1 <0>         0.0660
     44 H22        -3.0117    2.8297   -1.1182 H         1 <0>         0.0660
     45 H23        -4.6110    3.2373   -0.4235 H         1 <0>         0.0660
@<TRIPOS>BOND
     1    1   18 1
     2    2   14 2
     3    3   16 1
     4    3   21 1
     5    4   17 1
     6    4   22 1
     7    5    7 1
     8    5   10 1
     9    5   12 1
    10    6   11 1
    11    6   14 am
    12    6   34 1
    13    7    8 1
    14    7   11 1
    15    7   23 1
    16    8    9 1
    17    8   24 1
    18    8   25 1
    19    9   10 1
    20    9   26 1
    21    9   27 1
    22   10   28 1
    23   10   29 1
    24   11   30 1
    25   11   31 1
    26   12   13 1
    27   12   32 1
    28   12   33 1
    29   13   35 1
    30   13   36 1
    31   13   37 1
    32   14   15 1
    33   15   16 ar
    34   15   17 ar
    35   16   18 ar
    36   17   19 ar
    37   18   20 ar
    38   19   20 ar
    39   19   38 1
    40   20   39 1
    41   21   40 1
    42   21   41 1
    43   21   42 1
    44   22   43 1
    45   22   44 1
    46   22   45 1
