@<TRIPOS>MOLECULE
DB00608
   48    49     0     0     0
SMALL
USER_CHARGES

@<TRIPOS>ATOM
      1 Cl1         6.4811   -2.2283   -1.7011 Cl        1 <0>        -0.0835
      2 N1         -2.5182   -0.8372   -0.2276 N.3       1 <0>        -0.3028
      3 N2          1.2738    1.7329    0.0841 N.pl3     1 <0>        -0.3407
      4 N3          3.2886   -1.3231    2.1376 N.ar      1 <0>        -0.2548
      5 C1         -1.1253    1.6408    0.5617 C.3       1 <0>        -0.0337
      6 C2         -1.4765    1.2821   -0.8874 C.3       1 <0>        -0.0385
      7 C3          0.1671    2.4614    0.6686 C.3       1 <0>         0.0179
      8 C4         -2.7312    0.4119   -0.9498 C.3       1 <0>        -0.0011
      9 C5          0.0267    3.7963   -0.0559 C.3       1 <0>        -0.0467
     10 C6         -1.4049   -1.5867   -0.8120 C.3       1 <0>        -0.0040
     11 C7         -3.7357   -1.6498   -0.2331 C.3       1 <0>        -0.0040
     12 C8          1.9553    0.7227    0.7389 C.ar      1 <0>         0.0380
     13 C9          3.0378    0.0187    0.1518 C.ar      1 <0>         0.0213
     14 C10        -1.1288   -2.8593   -0.0292 C.3       1 <0>        -0.0524
     15 C11        -4.9054   -0.8903    0.3697 C.3       1 <0>        -0.0524
     16 C12         1.5686    0.3681    2.0397 C.ar      1 <0>        -0.0221
     17 C13         3.6769   -0.9994    0.8896 C.ar      1 <0>         0.0741
     18 C14         3.4694    0.3305   -1.1486 C.ar      1 <0>        -0.0494
     19 C15         2.2548   -0.6421    2.6826 C.ar      1 <0>         0.0300
     20 C16         4.7367   -1.6754    0.2910 C.ar      1 <0>        -0.0173
     21 C17         4.5318   -0.3616   -1.7230 C.ar      1 <0>        -0.0426
     22 C18         5.1660   -1.3656   -1.0018 C.ar      1 <0>         0.0430
     23 H1         -1.0314    0.7311    1.1626 H         1 <0>         0.0283
     24 H2         -1.9516    2.2128    1.0035 H         1 <0>         0.0283
     25 H3         -0.6372    0.8461   -1.4355 H         1 <0>         0.0278
     26 H4         -1.7148    2.2055   -1.4307 H         1 <0>         0.0278
     27 H5          0.3598    2.7141    1.7180 H         1 <0>         0.0495
     28 H6         -3.5376    1.0068   -0.5088 H         1 <0>         0.0426
     29 H7         -2.9967    0.2294   -1.9992 H         1 <0>         0.0426
     30 H8          1.4832    1.9206   -0.8871 H         1 <0>         0.1464
     31 H9          0.9092    4.4202    0.1283 H         1 <0>         0.0247
     32 H10        -0.8499    4.3482    0.2995 H         1 <0>         0.0247
     33 H11        -0.0532    3.6818   -1.1419 H         1 <0>         0.0247
     34 H12        -1.5823   -1.8303   -1.8671 H         1 <0>         0.0424
     35 H13        -0.4696   -1.0238   -0.7570 H         1 <0>         0.0424
     36 H14        -3.9985   -1.9881   -1.2434 H         1 <0>         0.0424
     37 H15        -3.6075   -2.5395    0.3917 H         1 <0>         0.0424
     38 H16        -1.0713   -2.6685    1.0480 H         1 <0>         0.0242
     39 H17        -1.8764   -3.6365   -0.2149 H         1 <0>         0.0242
     40 H18        -0.1632   -3.2768   -0.3369 H         1 <0>         0.0242
     41 H19        -4.6357   -0.4103    1.3168 H         1 <0>         0.0242
     42 H20        -5.3123   -0.1366   -0.3115 H         1 <0>         0.0242
     43 H21        -5.7236   -1.5884    0.5817 H         1 <0>         0.0242
     44 H22         0.7610    0.8436    2.5822 H         1 <0>         0.0651
     45 H23         3.0110    1.1072   -1.7521 H         1 <0>         0.0625
     46 H24         1.9864   -0.9441    3.6897 H         1 <0>         0.0830
     47 H25         5.2408   -2.4645    0.8477 H         1 <0>         0.0653
     48 H26         4.8530   -0.1069   -2.7294 H         1 <0>         0.0632
@<TRIPOS>BOND
     1    1   22 1
     2    2    8 1
     3    2   10 1
     4    2   11 1
     5    3    7 1
     6    3   12 1
     7    3   30 1
     8    4   17 ar
     9    4   19 ar
    10    5    6 1
    11    5    7 1
    12    5   23 1
    13    5   24 1
    14    6    8 1
    15    6   25 1
    16    6   26 1
    17    7    9 1
    18    7   27 1
    19    8   28 1
    20    8   29 1
    21    9   31 1
    22    9   32 1
    23    9   33 1
    24   10   14 1
    25   10   34 1
    26   10   35 1
    27   11   15 1
    28   11   36 1
    29   11   37 1
    30   12   13 ar
    31   12   16 ar
    32   13   17 ar
    33   13   18 ar
    34   14   38 1
    35   14   39 1
    36   14   40 1
    37   15   41 1
    38   15   42 1
    39   15   43 1
    40   16   19 ar
    41   16   44 1
    42   17   20 ar
    43   18   21 ar
    44   18   45 1
    45   19   46 1
    46   20   22 ar
    47   20   47 1
    48   21   22 ar
    49   21   48 1
