@<TRIPOS>MOLECULE
DB00719
   44    47     0     0     0
SMALL
USER_CHARGES

@<TRIPOS>ATOM
      1 N1         -3.6285   -0.3374    0.0756 N.3       1 <0>        -0.3047
      2 N2          0.6839    2.1628   -1.7362 N.ar      1 <0>        -0.2547
      3 C1         -0.8719   -0.1299   -0.7561 C.2       1 <0>        -0.0574
      4 C2         -1.8177    1.0252   -0.9404 C.3       1 <0>        -0.0180
      5 C3         -1.5495   -1.4707   -0.6734 C.3       1 <0>        -0.0180
      6 C4         -2.9439    0.9665    0.0979 C.3       1 <0>         0.0023
      7 C5         -2.6857   -1.4339    0.3549 C.3       1 <0>         0.0023
      8 C6          0.4544    0.0244   -0.6430 C.2       1 <0>         0.0073
      9 C7          1.3261   -1.1687   -0.4627 C.ar      1 <0>        -0.0127
     10 C8          0.9397    1.4188   -0.6301 C.ar      1 <0>         0.0747
     11 C9          2.4031   -1.2132    0.4511 C.ar      1 <0>        -0.0393
     12 C10         2.8449   -0.0902    1.3724 C.3       1 <0>        -0.0231
     13 C11         1.8646    1.0397    1.6844 C.3       1 <0>        -0.0216
     14 C12         1.6158    1.9097    0.4858 C.ar      1 <0>        -0.0211
     15 C13        -4.7299   -0.3527    1.0380 C.3       1 <0>        -0.0127
     16 C14         1.0978   -2.2918   -1.2899 C.ar      1 <0>        -0.0537
     17 C15         3.1956   -2.3825    0.5080 C.ar      1 <0>        -0.0580
     18 C16         2.0488    3.2377    0.4471 C.ar      1 <0>        -0.0551
     19 C17         1.8880   -3.4379   -1.2063 C.ar      1 <0>        -0.0612
     20 C18         2.9382   -3.4846   -0.3037 C.ar      1 <0>        -0.0615
     21 C19         1.8018    4.0200   -0.6751 C.ar      1 <0>        -0.0433
     22 C20         1.1214    3.4408   -1.7306 C.ar      1 <0>         0.0283
     23 H1         -1.4037    2.0272   -0.8395 H         1 <0>         0.0323
     24 H2         -2.2466    0.9655   -1.9494 H         1 <0>         0.0323
     25 H3         -1.9523   -1.7358   -1.6591 H         1 <0>         0.0323
     26 H4         -0.9478   -2.3043   -0.3181 H         1 <0>         0.0323
     27 H5         -2.5388    1.1761    1.0976 H         1 <0>         0.0429
     28 H6         -3.6636    1.7613   -0.1345 H         1 <0>         0.0429
     29 H7         -3.2169   -2.3931    0.3123 H         1 <0>         0.0429
     30 H8         -2.2691   -1.3375    1.3672 H         1 <0>         0.0429
     31 H9          3.1116   -0.5426    2.3375 H         1 <0>         0.0317
     32 H10         3.7682    0.3352    0.9557 H         1 <0>         0.0317
     33 H11         2.2836    1.6495    2.4951 H         1 <0>         0.0317
     34 H12         0.9137    0.6467    2.0660 H         1 <0>         0.0317
     35 H13        -4.3832   -0.2049    2.0671 H         1 <0>         0.0391
     36 H14        -5.2703   -1.3045    0.9890 H         1 <0>         0.0391
     37 H15        -5.4570    0.4326    0.8028 H         1 <0>         0.0391
     38 H16         0.3596   -2.2719   -2.0899 H         1 <0>         0.0624
     39 H17         4.0370   -2.4344    1.1970 H         1 <0>         0.0620
     40 H18         2.5815    3.6703    1.2897 H         1 <0>         0.0621
     41 H19         1.6977   -4.2791   -1.8661 H         1 <0>         0.0618
     42 H20         3.5659   -4.3679   -0.2390 H         1 <0>         0.0618
     43 H21         2.1317    5.0516   -0.7200 H         1 <0>         0.0633
     44 H22         0.9018    4.0079   -2.6291 H         1 <0>         0.0830
@<TRIPOS>BOND
     1    1    6 1
     2    1    7 1
     3    1   15 1
     4    2   10 ar
     5    2   22 ar
     6    3    4 1
     7    3    5 1
     8    3    8 2
     9    4    6 1
    10    4   23 1
    11    4   24 1
    12    5    7 1
    13    5   25 1
    14    5   26 1
    15    6   27 1
    16    6   28 1
    17    7   29 1
    18    7   30 1
    19    8    9 1
    20    8   10 1
    21    9   11 ar
    22    9   16 ar
    23   10   14 ar
    24   11   12 1
    25   11   17 ar
    26   12   13 1
    27   12   31 1
    28   12   32 1
    29   13   14 1
    30   13   33 1
    31   13   34 1
    32   14   18 ar
    33   15   35 1
    34   15   36 1
    35   15   37 1
    36   16   19 ar
    37   16   38 1
    38   17   20 ar
    39   17   39 1
    40   18   21 ar
    41   18   40 1
    42   19   20 ar
    43   19   41 1
    44   20   42 1
    45   21   22 ar
    46   21   43 1
    47   22   44 1
