@<TRIPOS>MOLECULE
DB00405
   38    39     0     0     0
SMALL
USER_CHARGES

@<TRIPOS>ATOM
      1 Br1        -6.3739    1.3986    0.3573 Br        1 <0>        -0.0503
      2 N1          2.4947    1.0730    0.2539 N.3       1 <0>        -0.3083
      3 N2         -0.5429   -1.9368   -1.1063 N.ar      1 <0>        -0.2593
      4 C1         -0.3337    0.1688    0.0717 C.3       1 <0>         0.0275
      5 C2          0.4019    0.9829   -1.0250 C.3       1 <0>        -0.0279
      6 C3          1.9125    0.7213   -1.0369 C.3       1 <0>        -0.0008
      7 C4         -1.8272    0.4729    0.1435 C.ar      1 <0>        -0.0384
      8 C5         -0.0795   -1.3313   -0.0064 C.ar      1 <0>         0.0487
      9 C6         -2.4702    0.3588    1.3567 C.ar      1 <0>        -0.0569
     10 C7         -2.4814    0.8511   -1.0087 C.ar      1 <0>        -0.0569
     11 C8          0.5875   -1.9302    1.0307 C.ar      1 <0>        -0.0398
     12 C9          2.3065    2.4975    0.5324 C.3       1 <0>        -0.0130
     13 C10         3.9177    0.7324    0.2867 C.3       1 <0>        -0.0130
     14 C11        -3.8356    0.6370    1.4209 C.ar      1 <0>        -0.0475
     15 C12        -3.8468    1.1295   -0.9443 C.ar      1 <0>        -0.0475
     16 C13         0.8034   -3.2999    0.9289 C.ar      1 <0>        -0.0586
     17 C14        -4.5238    1.0223    0.2705 C.ar      1 <0>         0.0179
     18 C15        -0.3146   -3.2677   -1.1701 C.ar      1 <0>         0.0279
     19 C16         0.3470   -3.9890   -0.1893 C.ar      1 <0>        -0.0436
     20 H1          0.0677    0.5323    1.0290 H         1 <0>         0.0413
     21 H2          0.0540    0.6753   -2.0196 H         1 <0>         0.0287
     22 H3          0.1702    2.0517   -0.9494 H         1 <0>         0.0287
     23 H4          2.3699    1.3017   -1.8492 H         1 <0>         0.0427
     24 H5          2.1028   -0.3336   -1.2680 H         1 <0>         0.0427
     25 H6         -1.9427    0.0590    2.2570 H         1 <0>         0.0621
     26 H7         -2.0024    0.9276   -1.9768 H         1 <0>         0.0621
     27 H8          0.9394   -1.3850    1.8986 H         1 <0>         0.0636
     28 H9          1.2612    2.7453    0.7394 H         1 <0>         0.0391
     29 H10         2.6708    3.1345   -0.2820 H         1 <0>         0.0391
     30 H11         2.8492    2.7804    1.4427 H         1 <0>         0.0391
     31 H12         4.0604   -0.3403    0.1143 H         1 <0>         0.0391
     32 H13         4.3435    0.9487    1.2728 H         1 <0>         0.0391
     33 H14         4.4922    1.2831   -0.4669 H         1 <0>         0.0391
     34 H15        -4.3484    0.5484    2.3753 H         1 <0>         0.0629
     35 H16        -4.3697    1.4240   -1.8506 H         1 <0>         0.0629
     36 H17         1.3264   -3.8296    1.7194 H         1 <0>         0.0619
     37 H18        -0.6903   -3.7581   -2.0620 H         1 <0>         0.0829
     38 H19         0.5041   -5.0567   -0.2898 H         1 <0>         0.0633
@<TRIPOS>BOND
     1    1   17 1
     2    2    6 1
     3    2   12 1
     4    2   13 1
     5    3    8 ar
     6    3   18 ar
     7    4    5 1
     8    4    7 1
     9    4    8 1
    10    4   20 1
    11    5    6 1
    12    5   21 1
    13    5   22 1
    14    6   23 1
    15    6   24 1
    16    7    9 ar
    17    7   10 ar
    18    8   11 ar
    19    9   14 ar
    20    9   25 1
    21   10   15 ar
    22   10   26 1
    23   11   16 ar
    24   11   27 1
    25   12   28 1
    26   12   29 1
    27   12   30 1
    28   13   31 1
    29   13   32 1
    30   13   33 1
    31   14   17 ar
    32   14   34 1
    33   15   17 ar
    34   15   35 1
    35   16   19 ar
    36   16   36 1
    37   18   19 ar
    38   18   37 1
    39   19   38 1
