@<TRIPOS>MOLECULE
DB00208
   31    33     0     0     0
SMALL
USER_CHARGES

@<TRIPOS>ATOM
      1 Cl1         2.3422   -2.2342   -1.8892 Cl        1 <0>        -0.0832
      2 S1         -4.4676    0.7195   -0.9162 S.3       1 <0>        -0.1012
      3 N1         -0.4428   -0.9441    0.0585 N.3       1 <0>        -0.2936
      4 C1         -1.5565   -1.8464    0.4192 C.3       1 <0>         0.0040
      5 C2         -0.7143    0.4505    0.4744 C.3       1 <0>         0.0251
      6 C3         -2.8330   -1.4990   -0.3727 C.3       1 <0>        -0.0083
      7 C4         -2.0548    0.8883   -0.0348 C.2       1 <0>        -0.0231
      8 C5         -3.0294   -0.0191   -0.3965 C.2       1 <0>        -0.0046
      9 C6          0.8090   -1.4102    0.6552 C.3       1 <0>         0.0258
     10 C7          1.9805   -0.5636    0.2337 C.ar      1 <0>        -0.0151
     11 C8         -2.5179    2.2299   -0.1854 C.2       1 <0>        -0.0501
     12 C9         -3.8125    2.2820   -0.6579 C.2       1 <0>        -0.0238
     13 C10         2.7207   -0.8706   -0.9010 C.ar      1 <0>         0.0454
     14 C11         2.3021    0.5392    1.0157 C.ar      1 <0>        -0.0560
     15 C12         3.7994   -0.0621   -1.2600 C.ar      1 <0>        -0.0431
     16 C13         3.3809    1.3475    0.6567 C.ar      1 <0>        -0.0614
     17 C14         4.1294    1.0468   -0.4810 C.ar      1 <0>        -0.0604
     18 H1         -1.7582   -1.7895    1.4976 H         1 <0>         0.0430
     19 H2         -1.2961   -2.8879    0.1937 H         1 <0>         0.0430
     20 H3          0.0110    1.1411    0.0326 H         1 <0>         0.0476
     21 H4         -0.7029    0.5578    1.5665 H         1 <0>         0.0476
     22 H5         -3.6933   -2.0043    0.0800 H         1 <0>         0.0331
     23 H6         -2.7330   -1.8615   -1.4035 H         1 <0>         0.0331
     24 H7          0.9920   -2.4614    0.4028 H         1 <0>         0.0476
     25 H8          0.7379   -1.4067    1.7530 H         1 <0>         0.0476
     26 H9         -1.9347    3.1127    0.0431 H         1 <0>         0.0626
     27 H10        -4.4049    3.1627   -0.8625 H         1 <0>         0.0693
     28 H11         1.7434    0.7809    1.9156 H         1 <0>         0.0621
     29 H12         4.3930   -0.2828   -2.1435 H         1 <0>         0.0632
     30 H13         3.6404    2.2088    1.2655 H         1 <0>         0.0618
     31 H14         4.9700    1.6757   -0.7597 H         1 <0>         0.0618
@<TRIPOS>BOND
     1    1   13 1
     2    2    8 1
     3    2   12 1
     4    3    4 1
     5    3    5 1
     6    3    9 1
     7    4    6 1
     8    4   18 1
     9    4   19 1
    10    5    7 1
    11    5   20 1
    12    5   21 1
    13    6    8 1
    14    6   22 1
    15    6   23 1
    16    7    8 2
    17    7   11 1
    18    9   10 1
    19    9   24 1
    20    9   25 1
    21   10   13 ar
    22   10   14 ar
    23   11   12 2
    24   11   26 1
    25   12   27 1
    26   13   15 ar
    27   14   16 ar
    28   14   28 1
    29   15   17 ar
    30   15   29 1
    31   16   17 ar
    32   16   30 1
    33   17   31 1
