@<TRIPOS>MOLECULE
DB00820
   48    53     0     0     0
SMALL
USER_CHARGES

@<TRIPOS>ATOM
      1 O1          1.4042   -2.9319    1.9545 O.2       1 <0>        -0.2735
      2 O2          2.1960   -0.7337   -2.8156 O.2       1 <0>        -0.2738
      3 O3          2.7323    2.6034    1.9370 O.3       1 <0>        -0.4526
      4 O4          2.5343    4.6763    0.7238 O.3       1 <0>        -0.4526
      5 N1          0.7727   -1.0514   -0.9811 N.am      1 <0>        -0.2758
      6 N2         -2.5164    0.7015   -1.2442 N.pl3     1 <0>        -0.3560
      7 N3          2.6392   -2.7336   -0.0025 N.am      1 <0>        -0.2942
      8 C1          0.2855   -2.0838   -0.0206 C.3       1 <0>         0.1074
      9 C2         -0.0408    0.1519   -1.3307 C.3       1 <0>         0.0925
     10 C3         -0.8256   -1.6271    0.9521 C.3       1 <0>         0.0019
     11 C4         -1.4189    0.0312   -0.7819 C.cat     1 <0>         0.0456
     12 C5         -1.8128   -0.7785    0.2545 C.2       1 <0>        -0.0147
     13 C6          1.4910   -2.5882    0.7762 C.2       1 <0>         0.2366
     14 C7         -3.2071   -0.5910    0.4489 C.ar      1 <0>         0.0032
     15 C8          1.8647   -1.3635   -1.8117 C.2       1 <0>         0.2344
     16 C9          0.6355    1.3821   -0.8098 C.ar      1 <0>        -0.0175
     17 C10         2.5475   -2.6594   -1.4498 C.3       1 <0>         0.0910
     18 C11        -3.6245    0.3428   -0.5061 C.ar      1 <0>         0.0470
     19 C12        -4.1613   -1.1200    1.3408 C.ar      1 <0>        -0.0523
     20 C13         1.3730    1.3144    0.3716 C.ar      1 <0>        -0.0108
     21 C14         0.5176    2.5873   -1.5193 C.ar      1 <0>        -0.0527
     22 C15        -4.9527    0.7704   -0.6116 C.ar      1 <0>        -0.0378
     23 C16         3.9263   -2.9591    0.6342 C.3       1 <0>         0.0037
     24 C17         1.9778    2.4738    0.8117 C.ar      1 <0>         0.1666
     25 C18        -5.4929   -0.6995    1.2459 C.ar      1 <0>        -0.0611
     26 C19         1.1403    3.7471   -1.0519 C.ar      1 <0>        -0.0158
     27 C20        -5.8804    0.2305    0.2837 C.ar      1 <0>        -0.0598
     28 C21         1.8647    3.6574    0.1190 C.ar      1 <0>         0.1662
     29 C22         3.0819    4.0012    1.8744 C.3       1 <0>         0.2332
     30 H1         -0.0923   -2.9172   -0.6284 H         1 <0>         0.0600
     31 H2         -0.0884    0.1931   -2.4269 H         1 <0>         0.0616
     32 H3         -0.3997   -1.0471    1.7811 H         1 <0>         0.0337
     33 H4         -1.3073   -2.5055    1.3979 H         1 <0>         0.0337
     34 H5         -2.5191    1.3633   -2.0083 H         1 <0>         0.1657
     35 H6          1.9594   -3.5044   -1.8207 H         1 <0>         0.0560
     36 H7          3.5510   -2.6811   -1.8853 H         1 <0>         0.0560
     37 H8          1.4792    0.4101    0.9574 H         1 <0>         0.0659
     38 H9         -3.8749   -1.8462    2.0960 H         1 <0>         0.0624
     39 H10        -0.0592    2.6318   -2.4397 H         1 <0>         0.0622
     40 H11        -5.2562    1.4951   -1.3599 H         1 <0>         0.0638
     41 H12         4.3147   -3.9258    0.3020 H         1 <0>         0.0429
     42 H13         3.8424   -2.9576    1.7240 H         1 <0>         0.0429
     43 H14         4.6115   -2.1633    0.3284 H         1 <0>         0.0429
     44 H15        -6.2324   -1.1048    1.9314 H         1 <0>         0.0618
     45 H16         1.0534    4.6815   -1.5945 H         1 <0>         0.0655
     46 H17        -6.9202    0.5427    0.2277 H         1 <0>         0.0618
     47 H18         4.1741    4.0887    1.8458 H         1 <0>         0.1166
     48 H19         2.7129    4.4960    2.7801 H         1 <0>         0.1166
@<TRIPOS>BOND
     1    1   13 2
     2    2   15 2
     3    3   24 1
     4    3   29 1
     5    4   28 1
     6    4   29 1
     7    5    8 1
     8    5    9 1
     9    5   15 am
    10    6   11 1
    11    6   18 2
    12    6   34 1
    13    7   13 am
    14    7   17 1
    15    7   23 1
    16    8   10 1
    17    8   13 1
    18    8   30 1
    19    9   11 1
    20    9   16 1
    21    9   31 1
    22   10   12 1
    23   10   32 1
    24   10   33 1
    25   11   12 1
    26   12   14 2
    27   14   18 ar
    28   14   19 ar
    29   15   17 1
    30   16   20 ar
    31   16   21 ar
    32   17   35 1
    33   17   36 1
    34   18   22 ar
    35   19   25 ar
    36   19   38 1
    37   20   24 ar
    38   20   37 1
    39   21   26 ar
    40   21   39 1
    41   22   27 ar
    42   22   40 1
    43   23   41 1
    44   23   42 1
    45   23   43 1
    46   24   28 ar
    47   25   27 ar
    48   25   44 1
    49   26   28 ar
    50   26   45 1
    51   27   46 1
    52   29   47 1
    53   29   48 1
