@<TRIPOS>MOLECULE
DB00620
   55    58     0     0     0
SMALL
USER_CHARGES

@<TRIPOS>ATOM
      1 F1         -1.3539    0.2264   -1.5788 F         1 <0>        -0.2377
      2 O1          2.9912   -0.1483   -1.8632 O.3       1 <0>        -0.3778
      3 O2         -0.4651    2.1953    1.3089 O.3       1 <0>        -0.3886
      4 O3          3.7000   -2.5960   -1.0850 O.3       1 <0>        -0.3885
      5 O4          5.1523   -0.1061    0.5966 O.2       1 <0>        -0.2918
      6 O5          5.5772    2.3743   -0.5293 O.3       1 <0>        -0.3874
      7 O6         -6.1773    0.3558   -2.2377 O.2       1 <0>        -0.2879
      8 C1          1.6896    0.1612    0.1942 C.3       1 <0>         0.0119
      9 C2          0.7852   -1.0288   -0.1993 C.3       1 <0>        -0.0242
     10 C3         -0.6427   -0.9149    0.3541 C.3       1 <0>         0.0004
     11 C4         -1.3081    0.3918   -0.2019 C.3       1 <0>         0.1526
     12 C5          3.0216   -0.3161   -0.4496 C.3       1 <0>         0.1570
     13 C6          1.0638    1.4324   -0.4130 C.3       1 <0>        -0.0150
     14 C7          1.6201   -2.2619    0.1564 C.3       1 <0>        -0.0199
     15 C8         -0.4094    1.6492    0.0014 C.3       1 <0>         0.0910
     16 C9          3.0811   -1.8166   -0.0725 C.3       1 <0>         0.0917
     17 C10        -2.8137    0.5261    0.2574 C.3       1 <0>         0.0443
     18 C11        -1.4639   -2.1614   -0.0257 C.3       1 <0>        -0.0432
     19 C12         1.8877    0.3147    1.7277 C.3       1 <0>        -0.0561
     20 C13        -2.9224   -2.0465    0.4006 C.3       1 <0>        -0.0301
     21 C14        -3.5279   -0.7738   -0.1345 C.2       1 <0>        -0.0532
     22 C15         4.2327    0.4478   -0.0041 C.2       1 <0>         0.1927
     23 C16        -3.0064    0.7293    1.7775 C.3       1 <0>        -0.0493
     24 C17        -3.4606    1.7309   -0.4103 C.2       1 <0>        -0.0674
     25 C18        -4.6031   -0.8218   -0.9365 C.2       1 <0>        -0.0148
     26 C19         4.2529    1.9249   -0.3348 C.3       1 <0>         0.1053
     27 C20        -4.5303    1.6894   -1.2106 C.2       1 <0>        -0.0180
     28 C21        -5.1853    0.4049   -1.5181 C.2       1 <0>         0.1787
     29 H1          0.6888   -1.0450   -1.2974 H         1 <0>         0.0312
     30 H2         -0.6036   -0.8685    1.4473 H         1 <0>         0.0336
     31 H3          1.0959    1.3805   -1.5083 H         1 <0>         0.0297
     32 H4          1.6333    2.3181   -0.1162 H         1 <0>         0.0297
     33 H5          1.4712   -2.5337    1.2079 H         1 <0>         0.0294
     34 H6          1.3443   -3.1261   -0.4568 H         1 <0>         0.0294
     35 H7         -0.7728    2.4349   -0.6739 H         1 <0>         0.0626
     36 H8          3.6401   -1.9905    0.8541 H         1 <0>         0.0627
     37 H9         -1.0320   -3.0529    0.4443 H         1 <0>         0.0272
     38 H10        -1.4151   -2.3238   -1.1107 H         1 <0>         0.0272
     39 H11         0.9403    0.4002    2.2646 H         1 <0>         0.0236
     40 H12         2.4182   -0.5295    2.1782 H         1 <0>         0.0236
     41 H13         2.4617    1.2173    1.9620 H         1 <0>         0.0236
     42 H14        -2.9981   -2.0629    1.4938 H         1 <0>         0.0310
     43 H15        -3.4664   -2.9296    0.0439 H         1 <0>         0.0310
     44 H16        -4.0512    0.5576    2.0692 H         1 <0>         0.0242
     45 H17        -2.3935    0.0468    2.3736 H         1 <0>         0.0242
     46 H18        -2.7684    1.7465    2.1031 H         1 <0>         0.0242
     47 H19        -3.0348    2.7102   -0.2033 H         1 <0>         0.0583
     48 H20         3.7311   -0.6549   -2.2401 H         1 <0>         0.2109
     49 H21        -1.1541    2.8806    1.3145 H         1 <0>         0.2099
     50 H22         3.6595   -3.5260   -0.8041 H         1 <0>         0.2099
     51 H23        -5.0777   -1.7610   -1.2008 H         1 <0>         0.0656
     52 H24         3.8233    2.4851    0.4983 H         1 <0>         0.0637
     53 H25         3.6966    2.1439   -1.2485 H         1 <0>         0.0637
     54 H26        -4.9464    2.5918   -1.6432 H         1 <0>         0.0653
     55 H27         5.9243    1.9288   -1.3211 H         1 <0>         0.2100
@<TRIPOS>BOND
     1    1   11 1
     2    2   12 1
     3    2   48 1
     4    3   15 1
     5    3   49 1
     6    4   16 1
     7    4   50 1
     8    5   22 2
     9    6   26 1
    10    6   55 1
    11    7   28 2
    12    8    9 1
    13    8   12 1
    14    8   13 1
    15    8   19 1
    16    9   10 1
    17    9   14 1
    18    9   29 1
    19   10   11 1
    20   10   18 1
    21   10   30 1
    22   11   15 1
    23   11   17 1
    24   12   16 1
    25   12   22 1
    26   13   15 1
    27   13   31 1
    28   13   32 1
    29   14   16 1
    30   14   33 1
    31   14   34 1
    32   15   35 1
    33   16   36 1
    34   17   21 1
    35   17   23 1
    36   17   24 1
    37   18   20 1
    38   18   37 1
    39   18   38 1
    40   19   39 1
    41   19   40 1
    42   19   41 1
    43   20   21 1
    44   20   42 1
    45   20   43 1
    46   21   25 2
    47   22   26 1
    48   23   44 1
    49   23   45 1
    50   23   46 1
    51   24   27 2
    52   24   47 1
    53   25   28 1
    54   25   51 1
    55   26   52 1
    56   26   53 1
    57   27   28 1
    58   27   54 1
