@<TRIPOS>MOLECULE
DB00377
   46    50     0     0     0
SMALL
USER_CHARGES

@<TRIPOS>ATOM
      1 O1         -0.1319    2.9099    0.8432 O.2       1 <0>        -0.2700
      2 N1         -3.6159   -1.1339    0.5985 N.3       1 <0>        -0.3005
      3 N2         -0.4536    0.6363    0.4615 N.am      1 <0>        -0.2924
      4 C1         -2.6648    0.9570   -0.6238 C.3       1 <0>        -0.0189
      5 C2         -1.8912    0.6740    0.6794 C.3       1 <0>         0.0419
      6 C3         -2.4122   -0.6360    1.3044 C.3       1 <0>         0.0178
      7 C4         -2.6087   -0.2892   -1.5252 C.3       1 <0>        -0.0356
      8 C5         -4.1379    1.1660   -0.2342 C.3       1 <0>        -0.0356
      9 C6         -3.2329   -1.4841   -0.7867 C.3       1 <0>        -0.0007
     10 C7         -4.6317   -0.0589    0.5545 C.3       1 <0>        -0.0007
     11 C8          1.5246   -0.8244    0.4997 C.3       1 <0>         0.0009
     12 C9          0.1139   -0.6123   -0.0400 C.3       1 <0>         0.0222
     13 C10         2.3607    0.3946    0.1906 C.ar      1 <0>        -0.0275
     14 C11         2.1391   -2.1151   -0.0513 C.3       1 <0>        -0.0444
     15 C12         0.3111    1.8034    0.5435 C.2       1 <0>         0.2472
     16 C13         1.7627    1.6656    0.2428 C.ar      1 <0>         0.0406
     17 C14         3.5999   -2.2137    0.3735 C.3       1 <0>        -0.0485
     18 C15         3.7358    0.2825   -0.0888 C.ar      1 <0>        -0.0431
     19 C16         4.4111   -1.0608   -0.2150 C.3       1 <0>        -0.0274
     20 C17         2.5276    2.8152    0.0189 C.ar      1 <0>        -0.0493
     21 C18         4.4859    1.4434   -0.3255 C.ar      1 <0>        -0.0583
     22 C19         3.8865    2.7005   -0.2658 C.ar      1 <0>        -0.0608
     23 H1         -2.2738    1.8341   -1.1505 H         1 <0>         0.0320
     24 H2         -2.0923    1.4989    1.3765 H         1 <0>         0.0516
     25 H3         -1.7048   -1.4468    1.4820 H         1 <0>         0.0445
     26 H4         -2.7245   -0.3940    2.3317 H         1 <0>         0.0445
     27 H5         -1.6151   -0.5184   -1.9022 H         1 <0>         0.0281
     28 H6         -3.2072   -0.0910   -2.4250 H         1 <0>         0.0281
     29 H7         -4.7498    1.3067   -1.1333 H         1 <0>         0.0281
     30 H8         -4.2454    2.0708    0.3758 H         1 <0>         0.0281
     31 H9         -4.1120   -1.8484   -1.3335 H         1 <0>         0.0427
     32 H10        -2.5300   -2.3258   -0.7739 H         1 <0>         0.0427
     33 H11        -4.9051    0.2362    1.5753 H         1 <0>         0.0427
     34 H12        -5.5556   -0.4422    0.1036 H         1 <0>         0.0427
     35 H13         1.4750   -0.9069    1.5952 H         1 <0>         0.0364
     36 H14         0.2095   -0.4840   -1.1254 H         1 <0>         0.0471
     37 H15        -0.4768   -1.5094    0.1154 H         1 <0>         0.0471
     38 H16         2.0731   -2.1421   -1.1467 H         1 <0>         0.0272
     39 H17         1.5844   -2.9823    0.3261 H         1 <0>         0.0272
     40 H18         4.0265   -3.1685    0.0462 H         1 <0>         0.0269
     41 H19         3.6651   -2.1928    1.4688 H         1 <0>         0.0269
     42 H20         4.5818   -1.2522   -1.2821 H         1 <0>         0.0313
     43 H21         5.3911   -1.0330    0.2762 H         1 <0>         0.0313
     44 H22         2.0832    3.8062    0.0540 H         1 <0>         0.0625
     45 H23         5.5451    1.3724   -0.5608 H         1 <0>         0.0620
     46 H24         4.4796    3.5923   -0.4474 H         1 <0>         0.0618
@<TRIPOS>BOND
     1    1   15 2
     2    2    6 1
     3    2    9 1
     4    2   10 1
     5    3    5 1
     6    3   12 1
     7    3   15 am
     8    4    5 1
     9    4    7 1
    10    4    8 1
    11    4   23 1
    12    5    6 1
    13    5   24 1
    14    6   25 1
    15    6   26 1
    16    7    9 1
    17    7   27 1
    18    7   28 1
    19    8   10 1
    20    8   29 1
    21    8   30 1
    22    9   31 1
    23    9   32 1
    24   10   33 1
    25   10   34 1
    26   11   12 1
    27   11   13 1
    28   11   14 1
    29   11   35 1
    30   12   36 1
    31   12   37 1
    32   13   16 ar
    33   13   18 ar
    34   14   17 1
    35   14   38 1
    36   14   39 1
    37   15   16 1
    38   16   20 ar
    39   17   19 1
    40   17   40 1
    41   17   41 1
    42   18   19 1
    43   18   21 ar
    44   19   42 1
    45   19   43 1
    46   20   22 ar
    47   20   44 1
    48   21   22 ar
    49   21   45 1
    50   22   46 1
