@<TRIPOS>MOLECULE
DB00486
   63    65     0     0     0
SMALL
USER_CHARGES

@<TRIPOS>ATOM
      1 O1          2.1931    0.0732   -1.8201 O.3       1 <0>        -0.4855
      2 O2          5.5574   -0.7258    3.5176 O.2       1 <0>        -0.2974
      3 O3          1.2173    0.7410    2.9072 O.3       1 <0>        -0.5064
      4 C1          4.0619   -0.4143   -0.3003 C.3       1 <0>         0.0062
      5 C2          3.1451   -0.3081    0.9425 C.3       1 <0>         0.0042
      6 C3          3.2493   -0.8693   -1.5404 C.3       1 <0>         0.1085
      7 C4          5.2772   -1.2988    0.0318 C.3       1 <0>        -0.0394
      8 C5          3.9251    0.3228    2.1078 C.3       1 <0>         0.0132
      9 C6          1.8700    0.4245    0.5821 C.ar      1 <0>         0.0395
     10 C7          6.0885   -0.7194    1.1838 C.3       1 <0>         0.0062
     11 C8          1.4825    0.5617   -0.7578 C.ar      1 <0>         0.1285
     12 C9          5.2046   -0.4399    2.3740 C.2       1 <0>         0.1340
     13 C10         4.1269   -0.8426   -2.8050 C.3       1 <0>        -0.0249
     14 C11         2.6307   -2.2724   -1.4222 C.3       1 <0>        -0.0249
     15 C12         1.0136    0.9334    1.5730 C.ar      1 <0>         0.1241
     16 C13        -1.7696    2.4811   -0.4658 C.3       1 <0>        -0.0096
     17 C14        -0.5138    1.7655   -0.1007 C.ar      1 <0>        -0.0348
     18 C15         0.3074    1.2436   -1.0959 C.ar      1 <0>        -0.0157
     19 C16        -0.1643    1.6033    1.2350 C.ar      1 <0>        -0.0160
     20 C17        -3.0548    1.8535    0.2083 C.3       1 <0>        -0.0439
     21 C18        -2.0643    2.5858   -2.0026 C.3       1 <0>        -0.0558
     22 C19        -1.6996    3.9676    0.0212 C.3       1 <0>        -0.0558
     23 C20        -3.3393    0.4012   -0.2058 C.3       1 <0>        -0.0523
     24 C21        -4.6160   -0.1669    0.4259 C.3       1 <0>        -0.0530
     25 C22        -4.8922   -1.6212    0.0372 C.3       1 <0>        -0.0533
     26 C23        -6.1703   -2.1376    0.6996 C.3       1 <0>        -0.0559
     27 C24        -6.4337   -3.5921    0.3433 C.3       1 <0>        -0.0653
     28 H1          4.4350    0.5992   -0.5197 H         1 <0>         0.0345
     29 H2          2.8516   -1.3217    1.2509 H         1 <0>         0.0359
     30 H3          5.9392   -1.3971   -0.8342 H         1 <0>         0.0273
     31 H4          4.9439   -2.3084    0.3008 H         1 <0>         0.0273
     32 H5          3.3738    0.2901    3.0487 H         1 <0>         0.0348
     33 H6          4.1827    1.3682    1.9019 H         1 <0>         0.0348
     34 H7          6.5690    0.2200    0.8894 H         1 <0>         0.0342
     35 H8          6.8723   -1.4256    1.4774 H         1 <0>         0.0342
     36 H9          3.5178   -0.9981   -3.7037 H         1 <0>         0.0268
     37 H10         4.6053    0.1360   -2.9265 H         1 <0>         0.0268
     38 H11         4.9044   -1.6120   -2.7906 H         1 <0>         0.0268
     39 H12         1.9267   -2.3446   -0.5874 H         1 <0>         0.0268
     40 H13         2.0494   -2.5111   -2.3210 H         1 <0>         0.0268
     41 H14         3.3938   -3.0465   -1.2978 H         1 <0>         0.0268
     42 H15         0.0711    1.3349   -2.1513 H         1 <0>         0.0657
     43 H16        -0.8082    1.9868    2.0222 H         1 <0>         0.0657
     44 H17        -2.9716    1.8982    1.3014 H         1 <0>         0.0274
     45 H18        -3.9302    2.4651   -0.0491 H         1 <0>         0.0274
     46 H19        -2.1196    1.6052   -2.4861 H         1 <0>         0.0238
     47 H20        -1.2891    3.1678   -2.5157 H         1 <0>         0.0238
     48 H21        -3.0195    3.0926   -2.1859 H         1 <0>         0.0238
     49 H22        -1.6188    4.0363    1.1119 H         1 <0>         0.0238
     50 H23        -0.8285    4.4785   -0.4064 H         1 <0>         0.0238
     51 H24        -2.5953    4.5268   -0.2736 H         1 <0>         0.0238
     52 H25        -3.4422    0.3312   -1.2935 H         1 <0>         0.0266
     53 H26        -2.4936   -0.2363    0.0770 H         1 <0>         0.0266
     54 H27         0.5062    1.1615    3.4197 H         1 <0>         0.2921
     55 H28        -5.4692    0.4557    0.1291 H         1 <0>         0.0265
     56 H29        -4.5354   -0.0945    1.5176 H         1 <0>         0.0265
     57 H30        -4.9832   -1.6990   -1.0529 H         1 <0>         0.0265
     58 H31        -4.0424   -2.2463    0.3365 H         1 <0>         0.0265
     59 H32        -6.0893   -2.0448    1.7888 H         1 <0>         0.0263
     60 H33        -7.0253   -1.5284    0.3843 H         1 <0>         0.0263
     61 H34        -7.3521   -3.9404    0.8262 H         1 <0>         0.0230
     62 H35        -6.5503   -3.7161   -0.7380 H         1 <0>         0.0230
     63 H36        -5.6108   -4.2328    0.6762 H         1 <0>         0.0230
@<TRIPOS>BOND
     1    1    6 1
     2    1   11 1
     3    2   12 2
     4    3   15 1
     5    3   54 1
     6    4    5 1
     7    4    6 1
     8    4    7 1
     9    4   28 1
    10    5    8 1
    11    5    9 1
    12    5   29 1
    13    6   13 1
    14    6   14 1
    15    7   10 1
    16    7   30 1
    17    7   31 1
    18    8   12 1
    19    8   32 1
    20    8   33 1
    21    9   11 ar
    22    9   15 ar
    23   10   12 1
    24   10   34 1
    25   10   35 1
    26   11   18 ar
    27   13   36 1
    28   13   37 1
    29   13   38 1
    30   14   39 1
    31   14   40 1
    32   14   41 1
    33   15   19 ar
    34   16   17 1
    35   16   20 1
    36   16   21 1
    37   16   22 1
    38   17   18 ar
    39   17   19 ar
    40   18   42 1
    41   19   43 1
    42   20   23 1
    43   20   44 1
    44   20   45 1
    45   21   46 1
    46   21   47 1
    47   21   48 1
    48   22   49 1
    49   22   50 1
    50   22   51 1
    51   23   24 1
    52   23   52 1
    53   23   53 1
    54   24   25 1
    55   24   55 1
    56   24   56 1
    57   25   26 1
    58   25   57 1
    59   25   58 1
    60   26   27 1
    61   26   59 1
    62   26   60 1
    63   27   61 1
    64   27   62 1
    65   27   63 1
