@<TRIPOS>MOLECULE
DB00494
   37    37     0     0     0
SMALL
USER_CHARGES

@<TRIPOS>ATOM
      1 O1         -2.3226    2.3937    0.5872 O.2       1 <0>        -0.2692
      2 O2          4.8609    2.3892    0.4002 O.3       1 <0>        -0.5031
      3 O3          5.8040   -0.1116   -0.2875 O.3       1 <0>        -0.4989
      4 O4          3.2134   -3.2360   -0.5803 O.3       1 <0>        -0.5759
      5 O5          5.2658   -2.4703   -0.7217 O.2       1 <0>         0.0416
      6 N1         -2.8843    0.1814    0.1133 N.am      1 <0>        -0.2975
      7 N2          4.0435   -2.2999   -0.5013 N.pl3     1 <0>         0.0836
      8 N3          0.0465    1.4318   -2.6728 N.1       1 <0>        -0.1907
      9 C1         -4.2801    0.3596    0.4902 C.3       1 <0>         0.0121
     10 C2         -2.5288   -1.1585   -0.3519 C.3       1 <0>         0.0121
     11 C3         -2.0093    1.2650    0.2045 C.2       1 <0>         0.2569
     12 C4         -5.1233    0.7906   -0.6920 C.3       1 <0>        -0.0493
     13 C5         -2.0702   -2.0395    0.7916 C.3       1 <0>        -0.0493
     14 C6          1.7702    0.4605    0.4407 C.ar      1 <0>        -0.0135
     15 C7         -0.5937    1.0297   -0.2007 C.2       1 <0>         0.1140
     16 C8          0.3381    0.6688    0.7000 C.2       1 <0>        -0.0318
     17 C9          2.2242   -0.8040    0.0960 C.ar      1 <0>         0.0268
     18 C10         2.6442    1.5326    0.5448 C.ar      1 <0>        -0.0089
     19 C11         3.5831   -1.0008   -0.1503 C.ar      1 <0>         0.3183
     20 C12         4.0031    1.3357    0.2984 C.ar      1 <0>         0.1657
     21 C13         4.4725    0.0690   -0.0490 C.ar      1 <0>         0.2370
     22 C14        -0.2386    1.2511   -1.5625 C.1       1 <0>         0.1044
     23 H1         -4.3450    1.1270    1.2699 H         1 <0>         0.0462
     24 H2         -4.6644   -0.5708    0.9223 H         1 <0>         0.0462
     25 H3         -1.7327   -1.0960   -1.0987 H         1 <0>         0.0462
     26 H4         -3.3933   -1.6070   -0.8542 H         1 <0>         0.0462
     27 H5         -4.7605    1.7340   -1.1135 H         1 <0>         0.0245
     28 H6         -5.1031    0.0414   -1.4900 H         1 <0>         0.0245
     29 H7         -6.1644    0.9326   -0.3857 H         1 <0>         0.0245
     30 H8         -1.1985   -1.6276    1.3058 H         1 <0>         0.0245
     31 H9         -2.8627   -2.1617    1.5374 H         1 <0>         0.0245
     32 H10        -1.8029   -3.0335    0.4193 H         1 <0>         0.0245
     33 H11         0.0505    0.5281    1.7402 H         1 <0>         0.0638
     34 H12         1.5094   -1.6209    0.0247 H         1 <0>         0.0692
     35 H13         2.2847    2.5225    0.8156 H         1 <0>         0.0661
     36 H14         5.7601    2.0623    0.5653 H         1 <0>         0.2923
     37 H15         6.2046    0.7314   -0.5551 H         1 <0>         0.2925
@<TRIPOS>BOND
     1    1   11 2
     2    2   20 1
     3    2   36 1
     4    3   21 1
     5    3   37 1
     6    4    7 1
     7    5    7 2
     8    6    9 1
     9    6   10 1
    10    6   11 am
    11    7   19 1
    12    8   22 3
    13    9   12 1
    14    9   23 1
    15    9   24 1
    16   10   13 1
    17   10   25 1
    18   10   26 1
    19   11   15 1
    20   12   27 1
    21   12   28 1
    22   12   29 1
    23   13   30 1
    24   13   31 1
    25   13   32 1
    26   14   16 1
    27   14   17 ar
    28   14   18 ar
    29   15   16 2
    30   15   22 1
    31   16   33 1
    32   17   19 ar
    33   17   34 1
    34   18   20 ar
    35   18   35 1
    36   19   21 ar
    37   20   21 ar
