@<TRIPOS>MOLECULE
DB00159
   52    51     0     0     0
SMALL
USER_CHARGES

@<TRIPOS>ATOM
      1 O1          3.2989   -1.1052    3.2937 O.3       1 <0>        -0.4806
      2 O2          4.3393   -1.0804    1.2676 O.2       1 <0>        -0.2510
      3 C1          2.6538    1.1104    0.4420 C.3       1 <0>        -0.0395
      4 C2          2.0128    2.4843    0.2095 C.3       1 <0>        -0.0343
      5 C3          2.9190    0.7705    1.9081 C.3       1 <0>         0.0451
      6 C4          1.8134    2.7968   -1.2446 C.2       1 <0>        -0.0876
      7 C5         -0.5420    1.9327   -1.2792 C.3       1 <0>        -0.0165
      8 C6          0.6734    2.5500   -1.9064 C.2       1 <0>        -0.0842
      9 C7         -1.4537    2.9867   -0.7223 C.2       1 <0>        -0.0839
     10 C8         -2.3443    1.5045    1.0894 C.3       1 <0>        -0.0165
     11 C9          3.5997   -0.5594    2.0902 C.2       1 <0>         0.3047
     12 C10        -2.2589    2.7987    0.3342 C.2       1 <0>        -0.0839
     13 C11        -3.1465   -1.2191    0.1027 C.3       1 <0>        -0.0165
     14 C12        -3.7520    0.9867    1.1236 C.2       1 <0>        -0.0839
     15 C13        -0.1469   -1.8417    0.9082 C.3       1 <0>        -0.0165
     16 C14        -4.1121   -0.2286    0.6837 C.2       1 <0>        -0.0839
     17 C15        -2.6639   -2.1888    1.1416 C.2       1 <0>        -0.0839
     18 C16        -1.3923   -2.4552    1.4799 C.2       1 <0>        -0.0839
     19 C17         0.6864   -2.8628    0.1899 C.2       1 <0>        -0.0842
     20 C18         0.3806   -1.7873   -2.0542 C.3       1 <0>        -0.0376
     21 C19         0.9209   -2.8374   -1.1305 C.2       1 <0>        -0.0879
     22 C20         0.8200   -2.0301   -3.4893 C.3       1 <0>        -0.0618
     23 H1          2.0195    0.3282    0.0084 H         1 <0>         0.0273
     24 H2          3.6014    1.0658   -0.1115 H         1 <0>         0.0273
     25 H3          1.0771    2.5554    0.7744 H         1 <0>         0.0307
     26 H4          2.6634    3.2606    0.6323 H         1 <0>         0.0307
     27 H5          1.9610    0.7516    2.4409 H         1 <0>         0.0378
     28 H6          3.5521    1.5361    2.3692 H         1 <0>         0.0378
     29 H7          2.6490    3.2365   -1.7822 H         1 <0>         0.0569
     30 H8         -1.0778    1.3807   -2.0611 H         1 <0>         0.0350
     31 H9         -0.2268    1.1937   -0.5435 H         1 <0>         0.0350
     32 H10         0.6134    2.8154   -2.9590 H         1 <0>         0.0572
     33 H11        -1.4925    3.9506   -1.2252 H         1 <0>         0.0572
     34 H12        -2.0647    1.7278    2.1282 H         1 <0>         0.0350
     35 H13        -1.6242    0.7591    0.7763 H         1 <0>         0.0350
     36 H14        -2.8858    3.6236    0.6643 H         1 <0>         0.0572
     37 H15        -2.3428   -0.7381   -0.4572 H         1 <0>         0.0350
     38 H16        -3.6912   -1.7953   -0.6572 H         1 <0>         0.0350
     39 H17        -4.5178    1.6299    1.5506 H         1 <0>         0.0572
     40 H18        -0.3674   -0.9824    0.2782 H         1 <0>         0.0350
     41 H19         0.4463   -1.4438    1.7407 H         1 <0>         0.0350
     42 H20        -5.1535   -0.5289    0.7679 H         1 <0>         0.0572
     43 H21        -3.4392   -2.7493    1.6631 H         1 <0>         0.0572
     44 H22        -1.2348   -3.1983    2.2608 H         1 <0>         0.0572
     45 H23         1.1260   -3.6615    0.7825 H         1 <0>         0.0572
     46 H24        -0.7141   -1.7836   -2.0217 H         1 <0>         0.0305
     47 H25         0.7448   -0.8008   -1.7515 H         1 <0>         0.0305
     48 H26         1.5422   -3.6244   -1.5510 H         1 <0>         0.0569
     49 H27         0.4607   -2.9977   -3.8562 H         1 <0>         0.0233
     50 H28         1.9117   -2.0146   -3.5786 H         1 <0>         0.0233
     51 H29         0.4175   -1.2504   -4.1441 H         1 <0>         0.0233
     52 H30         3.7412   -1.9711    3.4241 H         1 <0>         0.2951
@<TRIPOS>BOND
     1    1   11 1
     2    1   52 1
     3    2   11 2
     4    3    4 1
     5    3    5 1
     6    3   23 1
     7    3   24 1
     8    4    6 1
     9    4   25 1
    10    4   26 1
    11    5   11 1
    12    5   27 1
    13    5   28 1
    14    6    8 2
    15    6   29 1
    16    7    8 1
    17    7    9 1
    18    7   30 1
    19    7   31 1
    20    8   32 1
    21    9   12 2
    22    9   33 1
    23   10   12 1
    24   10   14 1
    25   10   34 1
    26   10   35 1
    27   12   36 1
    28   13   16 1
    29   13   17 1
    30   13   37 1
    31   13   38 1
    32   14   16 2
    33   14   39 1
    34   15   18 1
    35   15   19 1
    36   15   40 1
    37   15   41 1
    38   16   42 1
    39   17   18 2
    40   17   43 1
    41   18   44 1
    42   19   21 2
    43   19   45 1
    44   20   21 1
    45   20   22 1
    46   20   46 1
    47   20   47 1
    48   21   48 1
    49   22   49 1
    50   22   50 1
    51   22   51 1
