@<TRIPOS>MOLECULE
DB00426
   42    43     0     0     0
SMALL
USER_CHARGES

@<TRIPOS>ATOM
      1 O1         -3.4907   -0.7273   -0.2285 O.3       1 <0>        -0.4644
      2 O2         -0.5530    2.3343    0.2658 O.3       1 <0>        -0.4644
      3 O3         -4.9184    0.2707   -1.7461 O.2       1 <0>        -0.2512
      4 O4          0.0429    4.1674    1.5392 O.2       1 <0>        -0.2512
      5 N1          1.5061   -1.8337    0.9077 N.pl3     1 <0>        -0.3149
      6 N2          2.5619   -3.7031    0.3638 N.2       1 <0>        -0.2326
      7 N3          3.0094   -0.1879   -0.0500 N.2       1 <0>        -0.1950
      8 N4          4.9133   -1.2690   -1.1283 N.2       1 <0>        -0.2209
      9 N5          4.6886    1.0625   -1.0950 N.pl3     1 <0>        -0.3274
     10 C1         -1.7259    0.3475    1.0421 C.3       1 <0>         0.0291
     11 C2         -0.6646   -0.6433    0.5055 C.3       1 <0>        -0.0258
     12 C3          0.4816   -0.9630    1.4726 C.3       1 <0>         0.0265
     13 C4         -2.8510    0.5211    0.0068 C.3       1 <0>         0.0984
     14 C5         -1.1365    1.7177    1.4052 C.3       1 <0>         0.0984
     15 C6          2.6159   -1.4381    0.2354 C.2       1 <0>         0.1653
     16 C7          1.5072   -3.1932    0.9649 C.cat     1 <0>         0.0982
     17 C8          3.2634   -2.6174   -0.0967 C.2       1 <0>         0.1260
     18 C9          4.4552   -2.5024   -0.8053 C.2       1 <0>         0.0602
     19 C10        -4.5149   -0.7091   -1.1342 C.2       1 <0>         0.3040
     20 C11         0.0053    3.5655    0.4746 C.2       1 <0>         0.3040
     21 C12         4.1728   -0.2041   -0.7365 C.2       1 <0>         0.2145
     22 C13        -5.0902   -2.0854   -1.2802 C.3       1 <0>         0.0332
     23 C14         0.5788    4.0902   -0.8069 C.3       1 <0>         0.0332
     24 H1         -2.1591   -0.0957    1.9484 H         1 <0>         0.0367
     25 H2         -0.2439   -0.2517   -0.4302 H         1 <0>         0.0287
     26 H3         -1.1523   -1.5894    0.2368 H         1 <0>         0.0287
     27 H4          0.9967   -0.0535    1.7981 H         1 <0>         0.0493
     28 H5          0.0955   -1.4575    2.3718 H         1 <0>         0.0493
     29 H6         -3.5937    1.2335    0.3864 H         1 <0>         0.0701
     30 H7         -2.4472    0.9034   -0.9386 H         1 <0>         0.0701
     31 H8         -0.3862    1.6162    2.1968 H         1 <0>         0.0701
     32 H9         -1.9364    2.3635    1.7893 H         1 <0>         0.0701
     33 H10         0.7248   -3.7617    1.4492 H         1 <0>         0.1029
     34 H11         5.0535   -3.3465   -1.1226 H         1 <0>         0.0853
     35 H12        -5.4882   -2.4241   -0.3203 H         1 <0>         0.0342
     36 H13        -4.3205   -2.7718   -1.6420 H         1 <0>         0.0342
     37 H14        -5.9066   -2.0622   -2.0076 H         1 <0>         0.0342
     38 H15        -0.2127    4.1882   -1.5540 H         1 <0>         0.0342
     39 H16         1.3638    3.4182   -1.1628 H         1 <0>         0.0342
     40 H17         1.0169    5.0768   -0.6315 H         1 <0>         0.0342
     41 H18         4.1821    1.8968   -0.8330 H         1 <0>         0.1452
     42 H19         5.5563    1.1176   -1.6102 H         1 <0>         0.1452
@<TRIPOS>BOND
     1    1   13 1
     2    1   19 1
     3    2   14 1
     4    2   20 1
     5    3   19 2
     6    4   20 2
     7    5   12 1
     8    5   15 1
     9    5   16 2
    10    6   16 1
    11    6   17 2
    12    7   15 2
    13    7   21 1
    14    8   18 1
    15    8   21 2
    16    9   21 1
    17    9   41 1
    18    9   42 1
    19   10   11 1
    20   10   13 1
    21   10   14 1
    22   10   24 1
    23   11   12 1
    24   11   25 1
    25   11   26 1
    26   12   27 1
    27   12   28 1
    28   13   29 1
    29   13   30 1
    30   14   31 1
    31   14   32 1
    32   15   17 1
    33   16   33 1
    34   17   18 2
    35   18   34 1
    36   19   22 1
    37   20   23 1
    38   22   35 1
    39   22   36 1
    40   22   37 1
    41   23   38 1
    42   23   39 1
    43   23   40 1
