@<TRIPOS>MOLECULE
DB00711
   35    35     0     0     0
SMALL
USER_CHARGES

@<TRIPOS>ATOM
      1 O1          0.7588    0.1594   -2.2321 O.2       1 <0>        -0.2524
      2 N1         -0.3909    0.6985   -0.3110 N.am      1 <0>        -0.2830
      3 N2         -3.1360    0.2339    0.3560 N.3       1 <0>        -0.3024
      4 N3          1.8811   -0.0544   -0.2325 N.am      1 <0>        -0.2860
      5 C1         -0.7546    0.2908    1.0509 C.3       1 <0>         0.0289
      6 C2         -1.4620    1.3813   -1.0342 C.3       1 <0>         0.0289
      7 C3         -2.0656   -0.5046    1.0431 C.3       1 <0>         0.0145
      8 C4         -2.7430    0.5494   -1.0260 C.3       1 <0>         0.0145
      9 C5          0.7487    0.2603   -0.9985 C.2       1 <0>         0.3048
     10 C6         -4.3816   -0.5316    0.3736 C.3       1 <0>        -0.0126
     11 C7          2.8044   -1.0709   -0.7171 C.3       1 <0>         0.0133
     12 C8          2.3659    0.7523    0.8855 C.3       1 <0>         0.0133
     13 C9          2.4208   -2.4501   -0.2223 C.3       1 <0>        -0.0492
     14 C10         3.3557    1.8020    0.4241 C.3       1 <0>        -0.0492
     15 H1         -0.8590    1.2001    1.6539 H         1 <0>         0.0478
     16 H2          0.0205   -0.3401    1.4939 H         1 <0>         0.0478
     17 H3         -1.1598    1.5981   -2.0638 H         1 <0>         0.0478
     18 H4         -1.6275    2.3439   -0.5346 H         1 <0>         0.0478
     19 H5         -1.8975   -1.4749    0.5563 H         1 <0>         0.0442
     20 H6         -2.3544   -0.7034    2.0821 H         1 <0>         0.0442
     21 H7         -3.5349    1.1262   -1.5182 H         1 <0>         0.0442
     22 H8         -2.5913   -0.3705   -1.6061 H         1 <0>         0.0442
     23 H9         -5.1896    0.0384   -0.0981 H         1 <0>         0.0391
     24 H10        -4.6971   -0.7288    1.4042 H         1 <0>         0.0391
     25 H11        -4.2865   -1.4910   -0.1477 H         1 <0>         0.0391
     26 H12         3.8262   -0.8373   -0.4016 H         1 <0>         0.0462
     27 H13         2.7999   -1.0762   -1.8126 H         1 <0>         0.0462
     28 H14         2.8095    0.0899    1.6363 H         1 <0>         0.0462
     29 H15         1.5408    1.2892    1.3569 H         1 <0>         0.0462
     30 H16         1.4143   -2.7230   -0.5567 H         1 <0>         0.0245
     31 H17         2.4297   -2.4910    0.8719 H         1 <0>         0.0245
     32 H18         3.1217   -3.2012   -0.5992 H         1 <0>         0.0245
     33 H19         2.9074    2.4613   -0.3268 H         1 <0>         0.0245
     34 H20         4.2504    1.3550   -0.0195 H         1 <0>         0.0245
     35 H21         3.6755    2.4191    1.2700 H         1 <0>         0.0245
@<TRIPOS>BOND
     1    1    9 2
     2    2    5 1
     3    2    6 1
     4    2    9 am
     5    3    7 1
     6    3    8 1
     7    3   10 1
     8    4    9 am
     9    4   11 1
    10    4   12 1
    11    5    7 1
    12    5   15 1
    13    5   16 1
    14    6    8 1
    15    6   17 1
    16    6   18 1
    17    7   19 1
    18    7   20 1
    19    8   21 1
    20    8   22 1
    21   10   23 1
    22   10   24 1
    23   10   25 1
    24   11   13 1
    25   11   26 1
    26   11   27 1
    27   12   14 1
    28   12   28 1
    29   12   29 1
    30   13   30 1
    31   13   31 1
    32   13   32 1
    33   14   33 1
    34   14   34 1
    35   14   35 1
