@<TRIPOS>MOLECULE
DB00576
   27    28     0     0     0
SMALL
USER_CHARGES

@<TRIPOS>ATOM
      1 S1         -0.4853    2.7208   -0.4889 S.o2      1 <0>         0.0739
      2 S2          2.6156    0.4749    1.3569 S.3       1 <0>        -0.0345
      3 O1         -1.2986    3.7275    0.1827 O.2       1 <0>        -0.1499
      4 O2         -0.1556    2.9091   -1.8965 O.2       1 <0>        -0.1499
      5 N1          0.9637    2.5110    0.4193 N.pl3     1 <0>        -0.1924
      6 N2          1.9596    0.8823   -1.0865 N.2       1 <0>        -0.1245
      7 N3         -3.2104   -2.5262    0.1432 N.pl3     1 <0>        -0.3580
      8 N4          2.7849   -0.2287   -1.1010 N.2       1 <0>        -0.1449
      9 C1         -1.2852    1.1802   -0.3033 C.ar      1 <0>         0.1087
     10 C2         -2.1651    0.9747    0.7595 C.ar      1 <0>        -0.0333
     11 C3         -1.0446    0.1545   -1.2177 C.ar      1 <0>        -0.0333
     12 C4         -2.5635   -1.2817   -0.0061 C.ar      1 <0>         0.0247
     13 C5         -2.8040   -0.2563    0.9081 C.ar      1 <0>        -0.0392
     14 C6         -1.6838   -1.0763   -1.0690 C.ar      1 <0>        -0.0392
     15 C7          1.7795    1.3610    0.1360 C.2       1 <0>         0.2006
     16 C8          3.1966   -0.5469    0.1076 C.2       1 <0>         0.1007
     17 C9          4.0845   -1.6797    0.4357 C.3       1 <0>        -0.0140
     18 H1          0.9560    2.8101    1.4021 H         1 <0>         0.1758
     19 H2         -2.3620    1.7562    1.4879 H         1 <0>         0.0638
     20 H3         -0.3813    0.2932   -2.0659 H         1 <0>         0.0638
     21 H4         -3.4862   -0.4046    1.7413 H         1 <0>         0.0636
     22 H5         -1.4914   -1.8664   -1.7906 H         1 <0>         0.0636
     23 H6         -3.8471   -2.6763    0.9145 H         1 <0>         0.1423
     24 H7         -3.0347   -3.2706   -0.5185 H         1 <0>         0.1423
     25 H8          5.0071   -1.3312    0.9110 H         1 <0>         0.0298
     26 H9          3.5885   -2.3854    1.1098 H         1 <0>         0.0298
     27 H10         4.3627   -2.2252   -0.4719 H         1 <0>         0.0298
@<TRIPOS>BOND
     1    1    3 2
     2    1    4 2
     3    1    5 1
     4    1    9 1
     5    2   15 1
     6    2   16 1
     7    5   15 1
     8    5   18 1
     9    6    8 1
    10    6   15 2
    11    7   12 1
    12    7   23 1
    13    7   24 1
    14    8   16 2
    15    9   10 ar
    16    9   11 ar
    17   10   13 ar
    18   10   19 1
    19   11   14 ar
    20   11   20 1
    21   12   13 ar
    22   12   14 ar
    23   13   21 1
    24   14   22 1
    25   16   17 1
    26   17   25 1
    27   17   26 1
    28   17   27 1
