@<TRIPOS>MOLECULE
DB00425
   44    46     0     0     0
SMALL
USER_CHARGES

@<TRIPOS>ATOM
      1 O1         -0.4830   -1.4572   -1.6374 O.2       1 <0>        -0.2752
      2 N1         -1.9492    1.0034    0.0844 N.pl3     1 <0>        -0.3023
      3 N2         -0.5390    2.6574   -0.4420 N.2       1 <0>        -0.2275
      4 N3          0.0177   -3.1865   -0.1784 N.am      1 <0>        -0.3073
      5 C1         -0.6834    0.5021    0.2500 C.2       1 <0>         0.0597
      6 C2          0.1619    1.5354   -0.0792 C.2       1 <0>         0.0934
      7 C3         -1.8085    2.3213   -0.3383 C.2       1 <0>         0.1385
      8 C4         -0.4089   -0.8798    0.6942 C.3       1 <0>         0.0670
      9 C5          1.5913    1.4715   -0.0560 C.ar      1 <0>         0.0022
     10 C6         -3.1795    0.3817    0.2798 C.2       1 <0>         0.0144
     11 C7         -4.3126    1.0732    0.0537 C.2       1 <0>        -0.0338
     12 C8         -3.0062    3.0540   -0.5779 C.2       1 <0>        -0.0185
     13 C9         -0.2973   -1.8565   -0.4845 C.2       1 <0>         0.2209
     14 C10        -4.2013    2.4612   -0.3918 C.2       1 <0>        -0.0540
     15 C11         2.2951    1.0719   -1.1950 C.ar      1 <0>        -0.0523
     16 C12         2.2906    1.8084    1.1059 C.ar      1 <0>        -0.0523
     17 C13        -5.6835    0.5043    0.2319 C.3       1 <0>        -0.0383
     18 C14         4.3828    1.3463   -0.0105 C.ar      1 <0>        -0.0504
     19 C15         3.6884    1.0093   -1.1724 C.ar      1 <0>        -0.0582
     20 C16         3.6839    1.7460    1.1285 C.ar      1 <0>        -0.0582
     21 C17         0.1529   -4.2165   -1.2060 C.3       1 <0>         0.0028
     22 C18         0.2345   -3.6443    1.1888 C.3       1 <0>         0.0028
     23 C19         5.8724    1.2795    0.0137 C.3       1 <0>        -0.0397
     24 H1         -1.1838   -1.2321    1.3822 H         1 <0>         0.0423
     25 H2          0.5432   -0.8940    1.2380 H         1 <0>         0.0423
     26 H3         -3.1902   -0.6510    0.6057 H         1 <0>         0.0816
     27 H4         -2.9423    4.0846   -0.9088 H         1 <0>         0.0654
     28 H5         -5.1168    3.0156   -0.5730 H         1 <0>         0.0622
     29 H6          1.7693    0.8053   -2.1091 H         1 <0>         0.0624
     30 H7          1.7612    2.1216    2.0029 H         1 <0>         0.0624
     31 H8         -6.2433    1.0756    0.9799 H         1 <0>         0.0278
     32 H9         -5.6499   -0.5380    0.5671 H         1 <0>         0.0278
     33 H10        -6.2376    0.5317   -0.7122 H         1 <0>         0.0278
     34 H11         4.2215    0.6946   -2.0656 H         1 <0>         0.0620
     35 H12         4.2135    2.0094    2.0403 H         1 <0>         0.0620
     36 H13         1.1628   -4.6335   -1.1577 H         1 <0>         0.0428
     37 H14        -0.5828   -5.0034   -1.0170 H         1 <0>         0.0428
     38 H15        -0.0156   -3.8006   -2.2025 H         1 <0>         0.0428
     39 H16         0.0891   -2.8824    1.9522 H         1 <0>         0.0428
     40 H17        -0.4600   -4.4657    1.3919 H         1 <0>         0.0428
     41 H18         1.2600   -4.0183    1.2666 H         1 <0>         0.0428
     42 H19         6.2935    1.4868   -0.9760 H         1 <0>         0.0278
     43 H20         6.2902    2.0229    0.7012 H         1 <0>         0.0278
     44 H21         6.1987    0.2846    0.3324 H         1 <0>         0.0278
@<TRIPOS>BOND
     1    1   13 2
     2    2    5 1
     3    2    7 1
     4    2   10 2
     5    3    6 1
     6    3    7 2
     7    4   13 am
     8    4   21 1
     9    4   22 1
    10    5    6 2
    11    5    8 1
    12    6    9 1
    13    7   12 2
    14    8   13 1
    15    8   24 1
    16    8   25 1
    17    9   15 ar
    18    9   16 ar
    19   10   11 1
    20   10   26 1
    21   11   14 2
    22   11   17 1
    23   12   14 1
    24   12   27 1
    25   14   28 1
    26   15   19 ar
    27   15   29 1
    28   16   20 ar
    29   16   30 1
    30   17   31 1
    31   17   32 1
    32   17   33 1
    33   18   19 ar
    34   18   20 ar
    35   18   23 1
    36   19   34 1
    37   20   35 1
    38   21   36 1
    39   21   37 1
    40   21   38 1
    41   22   39 1
    42   22   40 1
    43   22   41 1
    44   23   42 1
    45   23   43 1
    46   23   44 1
