@<TRIPOS>MOLECULE
DB00438
   59    62     0     0     0
SMALL
USER_CHARGES

@<TRIPOS>ATOM
      1 S1          0.8645   -1.3402   -1.0354 S.3       1 <0>        -0.1309
      2 S2         -6.5865   -3.1479   -1.3823 S.3       1 <0>        -0.0604
      3 O1         -0.3158    0.6252    3.0088 O.2       1 <0>        -0.2731
      4 O2          2.7828    1.3029    3.1194 O.3       1 <0>        -0.4762
      5 O3          2.4663    2.8813    1.4950 O.2       1 <0>        -0.2437
      6 O4         -3.1977   -0.6210    2.3700 O.2       1 <0>        -0.2683
      7 O5         -3.2544    1.5566    0.1662 O.3       1 <0>        -0.3812
      8 O6         -5.2508    3.3031    1.1049 O.co2     1 <0>        -0.5457
      9 O7         -5.7283    3.3441   -1.1247 O.co2     1 <0>        -0.5457
     10 N1          1.1388   -0.1962    1.3447 N.am      1 <0>        -0.2488
     11 N2         -1.6937   -1.1507    0.6475 N.am      1 <0>        -0.2963
     12 N3          5.3877    0.1427   -0.6034 N.ar      1 <0>        -0.1998
     13 N4         -4.1533    0.6191   -0.3612 N.2       1 <0>        -0.0767
     14 N5         -4.6440   -2.9528    0.3121 N.2       1 <0>        -0.2233
     15 N6         -5.6037   -5.1053    0.1270 N.pl3     1 <0>        -0.3375
     16 C1          0.8663   -1.4989    0.7648 C.3       1 <0>         0.1042
     17 C2         -0.5088   -1.4150    1.4628 C.3       1 <0>         0.1286
     18 C3          0.0622   -0.1468    2.1590 C.2       1 <0>         0.2440
     19 C4          2.2126    0.5669    1.0155 C.2       1 <0>         0.1280
     20 C5          2.9540    0.3061   -0.0874 C.2       1 <0>         0.0330
     21 C6          2.6011   -0.7822   -1.0988 C.3       1 <0>         0.0248
     22 C7          4.2061    1.0553   -0.4757 C.3       1 <0>         0.1749
     23 C8          2.4947    1.7275    1.8734 C.2       1 <0>         0.3516
     24 C9         -2.9106   -0.7816    1.1946 C.2       1 <0>         0.2684
     25 C10        -3.9797   -0.5589    0.1576 C.2       1 <0>         0.1898
     26 C11         5.8163   -0.1916   -1.8282 C.ar      1 <0>         0.1715
     27 C12         5.9777   -0.3101    0.5115 C.ar      1 <0>         0.1715
     28 C13        -4.8324   -1.7066   -0.2531 C.2       1 <0>         0.1067
     29 C14         6.9081   -1.0349   -1.9767 C.ar      1 <0>         0.0021
     30 C15         7.0736   -1.1565    0.4236 C.ar      1 <0>         0.0021
     31 C16         7.5404   -1.5203   -0.8360 C.ar      1 <0>        -0.0506
     32 C17        -3.5108    2.8088   -0.4505 C.3       1 <0>         0.1718
     33 C18        -5.8387   -1.6164   -1.1917 C.2       1 <0>         0.0067
     34 C19        -2.5960    3.8444    0.1967 C.3       1 <0>        -0.0172
     35 C20        -3.2091    2.6822   -1.9393 C.3       1 <0>        -0.0172
     36 C21        -5.5130   -3.7910   -0.2081 C.2       1 <0>         0.1562
     37 C22        -4.9723    3.1878   -0.1220 C.2       1 <0>         0.0871
     38 H1          1.5182   -2.2867    1.1607 H         1 <0>         0.0644
     39 H2         -0.6853   -2.2407    2.1624 H         1 <0>         0.0622
     40 H3          2.7586   -0.4106   -2.1165 H         1 <0>         0.0425
     41 H4          3.2493   -1.6521   -0.9493 H         1 <0>         0.0425
     42 H5         -1.6367   -1.2374   -0.3646 H         1 <0>         0.1499
     43 H6          4.5059    1.8187    0.2504 H         1 <0>         0.1083
     44 H7          4.0617    1.5729   -1.4312 H         1 <0>         0.1083
     45 H8          5.2834    0.2159   -2.6785 H         1 <0>         0.1376
     46 H9          5.5669    0.0119    1.4606 H         1 <0>         0.1376
     47 H10         2.9786    2.0475    3.7272 H         1 <0>         0.2954
     48 H11         7.2620   -1.3113   -2.9642 H         1 <0>         0.0677
     49 H12         7.5578   -1.5277    1.3205 H         1 <0>         0.0677
     50 H13         8.3966   -2.1819   -0.9285 H         1 <0>         0.0621
     51 H14        -6.1685   -0.7587   -1.7612 H         1 <0>         0.0716
     52 H15        -2.7950    4.8522   -0.1831 H         1 <0>         0.0273
     53 H16        -3.8978    2.0022   -2.4535 H         1 <0>         0.0273
     54 H17        -3.2781    3.6535   -2.4420 H         1 <0>         0.0273
     55 H18        -2.2005    2.2835   -2.1005 H         1 <0>         0.0273
     56 H19        -2.7087    3.8598    1.2870 H         1 <0>         0.0273
     57 H20        -1.5434    3.6039    0.0064 H         1 <0>         0.0273
     58 H21        -4.9884   -5.5247    0.8163 H         1 <0>         0.1442
     59 H22        -6.2901   -5.7195   -0.2989 H         1 <0>         0.1442
@<TRIPOS>BOND
     1    1   16 1
     2    1   21 1
     3    2   33 1
     4    2   36 1
     5    3   18 2
     6    4   23 1
     7    4   47 1
     8    5   23 2
     9    6   24 2
    10    7   13 1
    11    7   32 1
    12    8   37 2
    13    9   37 1
    14   10   16 1
    15   10   18 am
    16   10   19 1
    17   11   17 1
    18   11   24 am
    19   11   42 1
    20   12   22 1
    21   12   26 ar
    22   12   27 ar
    23   13   25 2
    24   14   28 1
    25   14   36 2
    26   15   36 1
    27   15   58 1
    28   15   59 1
    29   16   17 1
    30   16   38 1
    31   17   18 1
    32   17   39 1
    33   19   20 2
    34   19   23 1
    35   20   21 1
    36   20   22 1
    37   21   40 1
    38   21   41 1
    39   22   43 1
    40   22   44 1
    41   24   25 1
    42   25   28 1
    43   26   29 ar
    44   26   45 1
    45   27   30 ar
    46   27   46 1
    47   28   33 2
    48   29   31 ar
    49   29   48 1
    50   30   31 ar
    51   30   49 1
    52   31   50 1
    53   32   34 1
    54   32   35 1
    55   32   37 1
    56   33   51 1
    57   34   52 1
    58   34   56 1
    59   34   57 1
    60   35   53 1
    61   35   54 1
    62   35   55 1
