@<TRIPOS>MOLECULE
DB00318
   43    47     0     0     0
SMALL
USER_CHARGES

@<TRIPOS>ATOM
      1 O1         -1.8151    1.3115   -1.1763 O.3       1 <0>        -0.4811
      2 O2         -2.0961    3.3994    0.3668 O.3       1 <0>        -0.3841
      3 O3         -3.9945   -0.5469   -0.6988 O.3       1 <0>        -0.4914
      4 N1          3.0476   -0.4993   -0.4065 N.3       1 <0>        -0.3015
      5 C1          0.5171    0.9094   -0.6011 C.3       1 <0>         0.0480
      6 C2          1.5304    1.1792    0.5217 C.3       1 <0>         0.0064
      7 C3          2.2598   -0.1737    0.8069 C.3       1 <0>         0.0213
      8 C4         -0.5460    1.9957   -0.8871 C.3       1 <0>         0.1399
      9 C5          1.2681    0.4603   -1.8701 C.3       1 <0>        -0.0263
     10 C6         -0.4136   -0.1661   -0.1469 C.ar      1 <0>         0.0116
     11 C7          1.2799   -1.3022    1.2797 C.3       1 <0>        -0.0110
     12 C8          2.2325   -0.7081   -1.6073 C.3       1 <0>        -0.0001
     13 C9         -0.0936   -1.2374    0.6676 C.ar      1 <0>        -0.0383
     14 C10        -0.7228    3.0356    0.2502 C.3       1 <0>         0.1110
     15 C11         0.8721    1.8047    1.7249 C.2       1 <0>        -0.0799
     16 C12        -1.7012    0.0959   -0.5578 C.ar      1 <0>         0.1666
     17 C13        -0.1709    2.6378    1.5933 C.2       1 <0>        -0.0559
     18 C14         3.9942   -1.5921   -0.2083 C.3       1 <0>        -0.0124
     19 C15        -1.1169   -2.1390    0.9650 C.ar      1 <0>        -0.0546
     20 C16        -2.7256   -0.7835   -0.2840 C.ar      1 <0>         0.1618
     21 C17        -2.4198   -1.9213    0.4734 C.ar      1 <0>        -0.0160
     22 C18        -4.9852   -1.5212   -0.3637 C.3       1 <0>         0.0790
     23 H1          2.2805    1.9078    0.1781 H         1 <0>         0.0368
     24 H2          2.9787   -0.0011    1.6197 H         1 <0>         0.0472
     25 H3         -0.2959    2.5479   -1.8022 H         1 <0>         0.0772
     26 H4          1.8455    1.3111   -2.2566 H         1 <0>         0.0287
     27 H5          0.5697    0.1704   -2.6657 H         1 <0>         0.0287
     28 H6          1.1527   -1.1902    2.3651 H         1 <0>         0.0329
     29 H7          1.7060   -2.2977    1.1222 H         1 <0>         0.0329
     30 H8          1.6693   -1.6473   -1.5408 H         1 <0>         0.0427
     31 H9          2.8863   -0.8043   -2.4832 H         1 <0>         0.0427
     32 H10        -0.1837    3.9487   -0.0340 H         1 <0>         0.0675
     33 H11         1.2797    1.6074    2.7116 H         1 <0>         0.0573
     34 H12        -0.5885    3.1045    2.4809 H         1 <0>         0.0596
     35 H13         3.5056   -2.5655   -0.0989 H         1 <0>         0.0391
     36 H14         4.6166   -1.4145    0.6755 H         1 <0>         0.0391
     37 H15         4.6793   -1.6571   -1.0612 H         1 <0>         0.0391
     38 H16        -0.9224   -3.0001    1.5989 H         1 <0>         0.0622
     39 H17        -3.1593   -2.6667    0.7497 H         1 <0>         0.0655
     40 H18        -2.4017    3.6715   -0.5154 H         1 <0>         0.2104
     41 H19        -4.7609   -2.4926   -0.8170 H         1 <0>         0.0660
     42 H20        -5.9339   -1.1777   -0.7887 H         1 <0>         0.0660
     43 H21        -5.1240   -1.5929    0.7202 H         1 <0>         0.0660
@<TRIPOS>BOND
     1    1    8 1
     2    1   16 1
     3    2   14 1
     4    2   40 1
     5    3   20 1
     6    3   22 1
     7    4    7 1
     8    4   12 1
     9    4   18 1
    10    5    6 1
    11    5    8 1
    12    5    9 1
    13    5   10 1
    14    6    7 1
    15    6   15 1
    16    6   23 1
    17    7   11 1
    18    7   24 1
    19    8   14 1
    20    8   25 1
    21    9   12 1
    22    9   26 1
    23    9   27 1
    24   10   13 ar
    25   10   16 ar
    26   11   13 1
    27   11   28 1
    28   11   29 1
    29   12   30 1
    30   12   31 1
    31   13   19 ar
    32   14   17 1
    33   14   32 1
    34   15   17 2
    35   15   33 1
    36   16   20 ar
    37   17   34 1
    38   18   35 1
    39   18   36 1
    40   18   37 1
    41   19   21 ar
    42   19   38 1
    43   20   21 ar
    44   21   39 1
    45   22   41 1
    46   22   42 1
    47   22   43 1
