@<TRIPOS>MOLECULE
DB00708
   57    59     0     0     0
SMALL
USER_CHARGES

@<TRIPOS>ATOM
      1 S1          6.7317   -0.6865    1.7105 S.3       1 <0>        -0.1016
      2 O1         -1.8221   -1.5265   -2.0325 O.3       1 <0>        -0.3808
      3 O2         -2.6977   -2.1523    1.5721 O.2       1 <0>        -0.2752
      4 N1          2.0137    0.1698    0.0851 N.3       1 <0>        -0.3018
      5 N2         -2.1779   -0.1821    0.3791 N.am      1 <0>        -0.2630
      6 C1         -0.8494   -0.5745   -0.0659 C.3       1 <0>         0.0677
      7 C2         -0.2286    0.5793   -0.8772 C.3       1 <0>        -0.0160
      8 C3          0.0347   -0.8478    1.1664 C.3       1 <0>        -0.0160
      9 C4          1.2631    0.3789   -1.1591 C.3       1 <0>         0.0009
     10 C5          1.5177   -1.0018    0.8178 C.3       1 <0>         0.0009
     11 C6         -0.9954   -1.8375   -0.9290 C.3       1 <0>         0.0691
     12 C7          3.4427    0.0321   -0.1952 C.3       1 <0>         0.0034
     13 C8         -2.6854    1.1270   -0.0073 C.ar      1 <0>         0.0370
     14 C9         -3.0007   -1.0242    1.1752 C.2       1 <0>         0.2201
     15 C10         4.2823    0.4407    1.0168 C.3       1 <0>        -0.0086
     16 C11        -4.3803   -0.4632    1.5080 C.3       1 <0>         0.0217
     17 C12        -2.4513    2.2341    0.8085 C.ar      1 <0>        -0.0402
     18 C13        -3.4048    1.2743   -1.1933 C.ar      1 <0>        -0.0402
     19 C14         5.7586    0.3232    0.7281 C.2       1 <0>        -0.0090
     20 C15        -2.0090   -2.6500   -2.8873 C.3       1 <0>         0.0365
     21 C16        -5.2060   -1.4030    2.3735 C.3       1 <0>        -0.0570
     22 C17        -2.9369    3.4883    0.4386 C.ar      1 <0>        -0.0600
     23 C18        -3.8903    2.5286   -1.5632 C.ar      1 <0>        -0.0600
     24 C19         6.4897    0.9403   -0.2631 C.2       1 <0>        -0.0515
     25 C20        -3.6563    3.6355   -0.7473 C.ar      1 <0>        -0.0616
     26 C21         7.8672    0.5791   -0.2153 C.2       1 <0>        -0.0545
     27 C22         8.1363   -0.3000    0.8104 C.2       1 <0>        -0.0241
     28 H1         -0.7343    0.7373   -1.8373 H         1 <0>         0.0299
     29 H2         -0.2714    1.5277   -0.3293 H         1 <0>         0.0299
     30 H3         -0.0705   -0.0227    1.8853 H         1 <0>         0.0299
     31 H4         -0.2842   -1.7522    1.6967 H         1 <0>         0.0299
     32 H5          1.4114   -0.4566   -1.8546 H         1 <0>         0.0427
     33 H6          1.6294    1.2818   -1.6643 H         1 <0>         0.0427
     34 H7          2.0607   -1.1236    1.7614 H         1 <0>         0.0427
     35 H8          1.6739   -1.9233    0.2430 H         1 <0>         0.0427
     36 H9         -1.4239   -2.6780   -0.3741 H         1 <0>         0.0581
     37 H10        -0.0211   -2.1715   -1.3026 H         1 <0>         0.0581
     38 H11         3.6956   -0.9829   -0.5306 H         1 <0>         0.0430
     39 H12         3.7187    0.6981   -1.0241 H         1 <0>         0.0430
     40 H13         4.0669    1.4840    1.2834 H         1 <0>         0.0331
     41 H14         4.0223   -0.1643    1.8928 H         1 <0>         0.0331
     42 H15        -4.2686    0.4812    2.0496 H         1 <0>         0.0356
     43 H16        -4.9313   -0.2842    0.5794 H         1 <0>         0.0356
     44 H17        -1.8932    2.1301    1.7353 H         1 <0>         0.0636
     45 H18        -3.6041    0.4211   -1.8349 H         1 <0>         0.0636
     46 H19        -2.6518   -2.3454   -3.7175 H         1 <0>         0.0523
     47 H20        -2.4991   -3.4650   -2.3460 H         1 <0>         0.0523
     48 H21        -1.0498   -2.9868   -3.2922 H         1 <0>         0.0523
     49 H22        -4.7027   -1.6060    3.3246 H         1 <0>         0.0234
     50 H23        -5.3709   -2.3604    1.8684 H         1 <0>         0.0234
     51 H24        -6.1826   -0.9599    2.5916 H         1 <0>         0.0234
     52 H25        -2.7551    4.3500    1.0741 H         1 <0>         0.0618
     53 H26        -4.4524    2.6429   -2.4854 H         1 <0>         0.0618
     54 H27         6.0646    1.6221   -0.9886 H         1 <0>         0.0626
     55 H28        -4.0350    4.6119   -1.0350 H         1 <0>         0.0618
     56 H29         8.6225    0.9462   -0.8979 H         1 <0>         0.0623
     57 H30         9.0904   -0.7336    1.0745 H         1 <0>         0.0693
@<TRIPOS>BOND
     1    1   19 1
     2    1   27 1
     3    2   11 1
     4    2   20 1
     5    3   14 2
     6    4    9 1
     7    4   10 1
     8    4   12 1
     9    5    6 1
    10    5   13 1
    11    5   14 am
    12    6    7 1
    13    6    8 1
    14    6   11 1
    15    7    9 1
    16    7   28 1
    17    7   29 1
    18    8   10 1
    19    8   30 1
    20    8   31 1
    21    9   32 1
    22    9   33 1
    23   10   34 1
    24   10   35 1
    25   11   36 1
    26   11   37 1
    27   12   15 1
    28   12   38 1
    29   12   39 1
    30   13   17 ar
    31   13   18 ar
    32   14   16 1
    33   15   19 1
    34   15   40 1
    35   15   41 1
    36   16   21 1
    37   16   42 1
    38   16   43 1
    39   17   22 ar
    40   17   44 1
    41   18   23 ar
    42   18   45 1
    43   19   24 2
    44   20   46 1
    45   20   47 1
    46   20   48 1
    47   21   49 1
    48   21   50 1
    49   21   51 1
    50   22   25 ar
    51   22   52 1
    52   23   25 ar
    53   23   53 1
    54   24   26 1
    55   24   54 1
    56   25   55 1
    57   26   27 2
    58   26   56 1
    59   27   57 1
