@<TRIPOS>MOLECULE
DB00273
   43    45     0     0     0
SMALL
USER_CHARGES

@<TRIPOS>ATOM
      1 S1          1.5043    3.9413    0.5517 S.o2      1 <0>         0.1486
      2 O1          1.0896   -2.1784   -0.3738 O.3       1 <0>        -0.3378
      3 O2          0.6069   -0.1286    1.6497 O.3       1 <0>        -0.3418
      4 O3          2.4054   -0.3153    0.1643 O.3       1 <0>        -0.3130
      5 O4         -1.9560   -0.2337   -0.9590 O.3       1 <0>        -0.3406
      6 O5         -2.9198   -0.9141    1.0699 O.3       1 <0>        -0.3410
      7 O6          1.5048    2.3185    0.7714 O.3       1 <0>        -0.2196
      8 O7          0.1295    4.3872    0.4178 O.2       1 <0>        -0.1300
      9 O8          2.3584    4.5181    1.5741 O.2       1 <0>        -0.1300
     10 N1          2.2849    4.1569   -0.9597 N.pl3     1 <0>        -0.1833
     11 C1          0.3434   -0.9802   -0.6357 C.3       1 <0>         0.1466
     12 C2         -1.1261   -1.2384   -0.3712 C.3       1 <0>         0.1215
     13 C3          1.0131    0.0315    0.2865 C.3       1 <0>         0.2280
     14 C4         -1.5139   -1.1804    1.0906 C.3       1 <0>         0.1140
     15 C5         -0.7977   -0.0738    1.8543 C.3       1 <0>         0.0799
     16 C6          2.4229   -1.7257   -0.1016 C.3       1 <0>         0.1686
     17 C7         -3.1787   -0.3054   -0.2077 C.3       1 <0>         0.1656
     18 C8          0.8543    1.4787   -0.1651 C.3       1 <0>         0.1345
     19 C9          2.9524   -2.4679    1.1185 C.3       1 <0>        -0.0107
     20 C10         3.3016   -1.9771   -1.3214 C.3       1 <0>        -0.0107
     21 C11        -4.1900   -1.1694   -0.9582 C.3       1 <0>        -0.0108
     22 C12        -3.7237    1.1031   -0.0093 C.3       1 <0>        -0.0108
     23 H1          0.5054   -0.7185   -1.6893 H         1 <0>         0.0679
     24 H2         -1.4218   -2.2047   -0.7997 H         1 <0>         0.0652
     25 H3         -1.3229   -2.1427    1.5785 H         1 <0>         0.0647
     26 H4         -1.1755    0.9235    1.6104 H         1 <0>         0.0588
     27 H5         -0.9864   -0.1975    2.9267 H         1 <0>         0.0588
     28 H6         -0.1991    1.7675   -0.2263 H         1 <0>         0.0639
     29 H7          1.3133    1.6175   -1.1501 H         1 <0>         0.0639
     30 H8          3.9569   -2.1248    1.3875 H         1 <0>         0.0281
     31 H9          2.3078   -2.2945    1.9875 H         1 <0>         0.0281
     32 H10         2.9746   -3.5492    0.9468 H         1 <0>         0.0281
     33 H11         3.3178   -3.0392   -1.5873 H         1 <0>         0.0281
     34 H12         2.9199   -1.4313   -2.1917 H         1 <0>         0.0281
     35 H13         4.3270   -1.6326   -1.1502 H         1 <0>         0.0281
     36 H14        -3.8167   -2.1921   -1.0817 H         1 <0>         0.0281
     37 H15        -4.3839   -0.7726   -1.9602 H         1 <0>         0.0281
     38 H16        -5.1352   -1.2394   -0.4093 H         1 <0>         0.0281
     39 H17        -4.6325    1.0952    0.6015 H         1 <0>         0.0281
     40 H18        -3.9392    1.5833   -0.9696 H         1 <0>         0.0281
     41 H19        -2.9944    1.7368    0.5055 H         1 <0>         0.0281
     42 H20         3.2697    3.8674   -1.0161 H         1 <0>         0.1462
     43 H21         1.7497    3.9010   -1.7991 H         1 <0>         0.1462
@<TRIPOS>BOND
     1    1    7 1
     2    1    8 2
     3    1    9 2
     4    1   10 1
     5    2   11 1
     6    2   16 1
     7    3   13 1
     8    3   15 1
     9    4   13 1
    10    4   16 1
    11    5   12 1
    12    5   17 1
    13    6   14 1
    14    6   17 1
    15    7   18 1
    16   10   42 1
    17   10   43 1
    18   11   12 1
    19   11   13 1
    20   11   23 1
    21   12   14 1
    22   12   24 1
    23   13   18 1
    24   14   15 1
    25   14   25 1
    26   15   26 1
    27   15   27 1
    28   16   19 1
    29   16   20 1
    30   17   21 1
    31   17   22 1
    32   18   28 1
    33   18   29 1
    34   19   30 1
    35   19   31 1
    36   19   32 1
    37   20   33 1
    38   20   34 1
    39   20   35 1
    40   21   36 1
    41   21   37 1
    42   21   38 1
    43   22   39 1
    44   22   40 1
    45   22   41 1
