@<TRIPOS>MOLECULE
DB00489
   38    38     0     0     0
SMALL
USER_CHARGES

@<TRIPOS>ATOM
      1 S1         -5.3225    0.2782    0.8019 S.o2      1 <0>         0.0403
      2 O1          1.4633   -1.9705   -1.5793 O.3       1 <0>        -0.3859
      3 O2         -6.7609    0.2087    0.6242 O.2       1 <0>        -0.1555
      4 O3         -4.7106   -0.1659    2.0388 O.2       1 <0>        -0.1555
      5 N1          3.2491   -0.5463    0.1731 N.3       1 <0>        -0.3110
      6 N2         -4.5695   -0.4630   -0.5581 N.pl3     1 <0>        -0.2209
      7 C1          1.0358   -1.5131   -0.2972 C.3       1 <0>         0.0926
      8 C2          1.8238   -0.2624    0.1112 C.3       1 <0>         0.0263
      9 C3          3.9986    0.6480    0.5603 C.3       1 <0>         0.0021
     10 C4         -0.4497   -1.2342   -0.3658 C.ar      1 <0>        -0.0178
     11 C5         -1.3146   -1.9822    0.4140 C.ar      1 <0>        -0.0543
     12 C6         -0.9119   -0.2377   -1.2081 C.ar      1 <0>        -0.0543
     13 C7          3.7650    1.7693   -0.4482 C.3       1 <0>        -0.0499
     14 C8          5.4813    0.3052    0.6649 C.3       1 <0>        -0.0499
     15 C9         -3.1677   -0.7252   -0.4934 C.ar      1 <0>         0.0477
     16 C10        -2.6841   -1.7259    0.3496 C.ar      1 <0>        -0.0390
     17 C11        -2.2815    0.0188   -1.2725 C.ar      1 <0>        -0.0390
     18 C12        -4.8510    1.9728    0.5373 C.3       1 <0>         0.0736
     19 H1          1.2329   -2.3229    0.4167 H         1 <0>         0.0656
     20 H2          1.4584    0.1055    1.0783 H         1 <0>         0.0453
     21 H3          1.6356    0.5064   -0.6421 H         1 <0>         0.0453
     22 H4          3.6697    0.9881    1.5506 H         1 <0>         0.0455
     23 H5          3.4226   -1.2946    0.8436 H         1 <0>         0.1223
     24 H6         -0.9506   -2.7657    1.0721 H         1 <0>         0.0622
     25 H7         -0.2421    0.3415   -1.8362 H         1 <0>         0.0622
     26 H8          4.4890    2.5776   -0.2910 H         1 <0>         0.0245
     27 H9          3.8883    1.4225   -1.4807 H         1 <0>         0.0245
     28 H10         2.7760    2.2270   -0.3450 H         1 <0>         0.0245
     29 H11         5.6517   -0.4876    1.4018 H         1 <0>         0.0245
     30 H12         6.0604    1.1796    0.9813 H         1 <0>         0.0245
     31 H13         5.8835   -0.0341   -0.2965 H         1 <0>         0.0245
     32 H14        -3.3628   -2.3229    0.9530 H         1 <0>         0.0637
     33 H15        -2.6473    0.7990   -1.9349 H         1 <0>         0.0637
     34 H16         2.4251   -2.1072   -1.5328 H         1 <0>         0.2103
     35 H17        -4.8873   -0.1187   -1.4742 H         1 <0>         0.1733
     36 H18        -5.3292    2.5784    1.3106 H         1 <0>         0.0482
     37 H19        -3.7668    2.0636    0.6196 H         1 <0>         0.0482
     38 H20        -5.2001    2.2900   -0.4471 H         1 <0>         0.0482
@<TRIPOS>BOND
     1    1    3 2
     2    1    4 2
     3    1    6 1
     4    1   18 1
     5    2    7 1
     6    2   34 1
     7    5    8 1
     8    5    9 1
     9    5   23 1
    10    6   15 1
    11    6   35 1
    12    7    8 1
    13    7   10 1
    14    7   19 1
    15    8   20 1
    16    8   21 1
    17    9   13 1
    18    9   14 1
    19    9   22 1
    20   10   11 ar
    21   10   12 ar
    22   11   16 ar
    23   11   24 1
    24   12   17 ar
    25   12   25 1
    26   13   26 1
    27   13   27 1
    28   13   28 1
    29   14   29 1
    30   14   30 1
    31   14   31 1
    32   15   16 ar
    33   15   17 ar
    34   16   32 1
    35   17   33 1
    36   18   36 1
    37   18   37 1
    38   18   38 1
