@<TRIPOS>MOLECULE
DB00116
 32 34 0 0 0
SMALL
GASTEIGER

@<TRIPOS>ATOM
      1 O           3.5220   -0.2143    0.0000 O.2     1  UNL1       -0.2636
      2 O           9.9988    1.0569    0.0000 O.2     1  UNL1       -0.2684
      3 O          12.8598    0.2429    0.0000 O.co2   1  UNL1       -0.2437
      4 OXT        12.1501   -0.9974    0.0000 O.co2   1  UNL1       -0.2437
      5 OE1        12.8502    2.7179    0.0000 O.co2   1  UNL1       -0.2457
      6 OE2        11.4213    2.7124    0.0000 O.co2   1  UNL1       -0.2457
      7 N           4.9740   -1.0107    0.0000 N.pl3   1  UNL1       -0.2287
      8 N           4.9740   -2.7179    0.0000 N.pl3   1  UNL1       -0.2172
      9 N           7.1504   -1.4292    0.0000 N.pl3   1  UNL1       -0.2357
     10 N           3.5220   -2.6894    0.0000 N.ar    1  UNL1       -0.1931
     11 N           2.8075   -1.4518    0.0000 N.ar    1  UNL1       -0.1711
     12 N          10.7180   -0.1779    0.0000 N.am    1  UNL1       -0.1918
     13 N           2.0930   -2.6894    0.0000 N.pl3   1  UNL1       -0.0859
     14 C           5.7214   -1.4347    0.0000 C.3     1  UNL1        0.1358
     15 C           5.7214   -2.2940    0.0000 C.3     1  UNL1        0.1371
     16 C           6.4343   -1.0194    0.0000 C.3     1  UNL1        0.1355
     17 C           4.2364   -1.4518    0.0000 C.ar    1  UNL1        0.1566
     18 C           4.2364   -2.2769    0.0000 C.ar    1  UNL1        0.1703
     19 C           7.8633   -1.0139    0.0000 C.ar    1  UNL1        0.0654
     20 C           3.5220   -1.0393    0.0000 C.ar    1  UNL1        0.2993
     21 C           2.8075   -2.2769    0.0000 C.ar    1  UNL1        0.2605
     22 CA         11.4309    0.2374    0.0000 C.3     1  UNL1        0.1986
     23 CB         11.4277    1.0624    0.0000 C.3     1  UNL1        0.0451
     24 C           8.5793   -1.4236    0.0000 C.ar    1  UNL1        0.0162
     25 C           7.8601   -0.1888    0.0000 C.ar    1  UNL1        0.0162
     26 C           9.2890   -0.1834    0.0000 C.ar    1  UNL1        0.0551
     27 C           9.2922   -1.0084    0.0000 C.ar    1  UNL1        0.0059
     28 C           8.5730    0.2264    0.0000 C.ar    1  UNL1        0.0059
     29 CG         12.1406    1.4777    0.0000 C.3     1  UNL1        0.1164
     30 C          10.0019    0.2319    0.0000 C.2     0  ACE0        0.2652
     31 C          12.1469   -0.1723    0.0000 C.2     1  UNL1        0.3842
     32 CD         12.1374    2.3027    0.0000 C.2     1  UNL1        0.3649
@<TRIPOS>BOND
     1     1    20    2
     2     2    30    2
     3     3    31   ar
     4     4    31   ar
     5     5    32   ar
     6     6    32   ar
     7     7    14    1
     8     7    17    1
     9     8    15    1
    10     8    18    1
    11     9    16    1
    12     9    19    1
    13    10    18   ar
    14    10    21   ar
    15    11    20   ar
    16    11    21   ar
    17    22    12    1
    18    12    30   am
    19    13    21    1
    20    14    15    1
    21    14    16    1
    22    17    18   ar
    23    17    20   ar
    24    19    24   ar
    25    19    25   ar
    26    22    23    1
    27    22    31    1
    28    23    29    1
    29    24    27   ar
    30    25    28   ar
    31    26    27   ar
    32    26    28   ar
    33    26    30    1
    34    29    32    1
