@<TRIPOS>MOLECULE
DB00518
   33    34     0     0     0
SMALL
USER_CHARGES

@<TRIPOS>ATOM
      1 S1          3.4206   -0.1901    1.6378 S.3       1 <0>        -0.1251
      2 O1         -6.1382    0.8102   -0.2813 O.3       1 <0>        -0.4534
      3 O2         -5.1046   -1.1802   -0.7179 O.2       1 <0>        -0.2260
      4 N1         -1.6696    0.9542    0.8246 N.pl3     1 <0>        -0.3257
      5 N2         -2.2246   -1.0383    0.0112 N.2       1 <0>        -0.2142
      6 N3         -3.9362    0.6492    0.1842 N.am      1 <0>        -0.2212
      7 C1         -0.5142    0.2158    0.8447 C.2       1 <0>         0.0685
      8 C2         -0.8867   -1.0237    0.3324 C.2       1 <0>         0.0908
      9 C3          1.7359   -0.5019    1.1309 C.2       1 <0>         0.0100
     10 C4          0.7851    0.5165    1.2548 C.2       1 <0>        -0.0228
     11 C5          0.0814   -2.0351    0.2148 C.2       1 <0>        -0.0331
     12 C6         -2.6624    0.1620    0.3187 C.cat     1 <0>         0.2029
     13 C7          4.0912    0.4241    0.0781 C.3       1 <0>        -0.0019
     14 C8          1.3926   -1.7557    0.6203 C.2       1 <0>        -0.0462
     15 C9          5.5741    0.0886   -0.0348 C.3       1 <0>        -0.0465
     16 C10         6.1524    0.5972   -1.3473 C.3       1 <0>        -0.0645
     17 C11        -5.0531   -0.0261   -0.3110 C.2       1 <0>         0.4065
     18 C12        -7.3707    0.2599   -0.7608 C.3       1 <0>         0.0833
     19 H1          1.0331    1.4967    1.6488 H         1 <0>         0.0650
     20 H2         -1.7697    1.9132    1.1293 H         1 <0>         0.1686
     21 H3         -0.1756   -3.0126   -0.1808 H         1 <0>         0.0640
     22 H4          3.9342    1.5069    0.0304 H         1 <0>         0.0380
     23 H5          3.5568   -0.0263   -0.7658 H         1 <0>         0.0380
     24 H6          2.1403   -2.5409    0.5278 H         1 <0>         0.0629
     25 H7          6.1325    0.5408    0.7940 H         1 <0>         0.0271
     26 H8          5.7261   -0.9963    0.0189 H         1 <0>         0.0271
     27 H9          6.0496    1.6842   -1.4262 H         1 <0>         0.0230
     28 H10         7.2169    0.3511   -1.4127 H         1 <0>         0.0230
     29 H11         5.6451    0.1404   -2.2030 H         1 <0>         0.0230
     30 H12        -4.0826    1.6114    0.4789 H         1 <0>         0.1610
     31 H13        -7.2727   -0.0287   -1.8116 H         1 <0>         0.0661
     32 H14        -8.1412    1.0311   -0.6790 H         1 <0>         0.0661
     33 H15        -7.6657   -0.5976   -0.1486 H         1 <0>         0.0661
@<TRIPOS>BOND
     1    1    9 1
     2    1   13 1
     3    2   17 1
     4    2   18 1
     5    3   17 2
     6    4    7 1
     7    4   12 2
     8    4   20 1
     9    5    8 2
    10    5   12 1
    11    6   12 1
    12    6   17 am
    13    6   30 1
    14    7    8 1
    15    7   10 2
    16    8   11 2
    17    9   10 1
    18    9   14 2
    19   10   19 1
    20   11   14 1
    21   11   21 1
    22   13   15 1
    23   13   22 1
    24   13   23 1
    25   14   24 1
    26   15   16 1
    27   15   25 1
    28   15   26 1
    29   16   27 1
    30   16   28 1
    31   16   29 1
    32   18   31 1
    33   18   32 1
    34   18   33 1
