@<TRIPOS>MOLECULE
DB00874
   28    28     0     0     0
SMALL
USER_CHARGES

@<TRIPOS>ATOM
      1 O1         -0.5377   -0.1894   -0.4791 O.3       1 <0>        -0.4857
      2 O2         -2.3724    0.6673    1.4566 O.3       1 <0>        -0.3861
      3 O3         -4.5098    1.2028   -0.2660 O.3       1 <0>        -0.3923
      4 O4          1.4438    1.7411   -0.2135 O.3       1 <0>        -0.4915
      5 C1         -2.7618   -0.2739    0.4536 C.3       1 <0>         0.1120
      6 C2         -1.5340   -1.0711    0.0280 C.3       1 <0>         0.1177
      7 C3         -3.3543    0.5025   -0.7150 C.3       1 <0>         0.0733
      8 C4          0.7670   -0.5543   -0.2785 C.ar      1 <0>         0.1620
      9 C5          1.7544    0.4164   -0.1455 C.ar      1 <0>         0.1615
     10 C6          1.0905   -1.9055   -0.2101 C.ar      1 <0>        -0.0163
     11 C7          3.0796    0.0319    0.0581 C.ar      1 <0>        -0.0163
     12 C8          2.4159   -2.2900   -0.0065 C.ar      1 <0>        -0.0581
     13 C9          3.4104   -1.3213    0.1276 C.ar      1 <0>        -0.0581
     14 C10         2.5185    2.6672   -0.0666 C.3       1 <0>         0.0790
     15 H1         -3.5108   -0.9386    0.8982 H         1 <0>         0.0650
     16 H2         -1.8023   -1.8010   -0.7441 H         1 <0>         0.0723
     17 H3         -1.1772   -1.5965    0.9237 H         1 <0>         0.0723
     18 H4         -3.6437   -0.1587   -1.5374 H         1 <0>         0.0584
     19 H5         -2.6565    1.2556   -1.0943 H         1 <0>         0.0584
     20 H6          0.3549   -2.6931   -0.3419 H         1 <0>         0.0655
     21 H7          3.9036    0.7281    0.1700 H         1 <0>         0.0655
     22 H8         -3.1666    1.1689    1.7087 H         1 <0>         0.2100
     23 H9          2.6752   -3.3437    0.0403 H         1 <0>         0.0619
     24 H10         4.4423   -1.6221    0.2842 H         1 <0>         0.0619
     25 H11        -5.1497    0.5409    0.0471 H         1 <0>         0.2095
     26 H12         3.2499    2.5683   -0.8757 H         1 <0>         0.0660
     27 H13         2.9802    2.5958    0.9241 H         1 <0>         0.0660
     28 H14         2.0909    3.6723   -0.1459 H         1 <0>         0.0660
@<TRIPOS>BOND
     1    1    6 1
     2    1    8 1
     3    2    5 1
     4    2   22 1
     5    3    7 1
     6    3   25 1
     7    4    9 1
     8    4   14 1
     9    5    6 1
    10    5    7 1
    11    5   15 1
    12    6   16 1
    13    6   17 1
    14    7   18 1
    15    7   19 1
    16    8    9 ar
    17    8   10 ar
    18    9   11 ar
    19   10   12 ar
    20   10   20 1
    21   11   13 ar
    22   11   21 1
    23   12   13 ar
    24   12   23 1
    25   13   24 1
    26   14   26 1
    27   14   27 1
    28   14   28 1
