@<TRIPOS>MOLECULE
DB00621
   52    55     0     0     0
SMALL
USER_CHARGES

@<TRIPOS>ATOM
      1 O1          4.6342    0.9217    0.4976 O.3       1 <0>        -0.3883
      2 O2         -4.4413    1.6054   -0.6124 O.3       1 <0>        -0.4641
      3 O3         -6.3606    0.4415   -0.7484 O.2       1 <0>        -0.2508
      4 C1          1.4457   -0.7157   -0.2332 C.3       1 <0>        -0.0298
      5 C2          2.2018    0.5435    0.2439 C.3       1 <0>        -0.0004
      6 C3         -0.0232   -0.7417    0.2111 C.3       1 <0>        -0.0342
      7 C4         -0.7435    0.5215   -0.3568 C.3       1 <0>        -0.0292
      8 C5         -2.2668    0.5416    0.0205 C.3       1 <0>         0.0085
      9 C6          3.6456    0.2158   -0.2489 C.3       1 <0>         0.0689
     10 C7          1.5135    1.7695   -0.3805 C.3       1 <0>        -0.0445
     11 C8          0.0170    1.8309   -0.0220 C.3       1 <0>        -0.0487
     12 C9          2.3557   -1.8619    0.1957 C.3       1 <0>        -0.0468
     13 C10        -2.9090   -0.7750   -0.4790 C.3       1 <0>        -0.0222
     14 C11        -0.7251   -2.0265   -0.2540 C.3       1 <0>        -0.0494
     15 C12         3.7823   -1.3038    0.0402 C.3       1 <0>        -0.0235
     16 C13        -2.2146   -2.0230    0.0784 C.3       1 <0>        -0.0488
     17 C14         2.2103    0.7101    1.7919 C.3       1 <0>        -0.0567
     18 C15        -3.0026    1.6609   -0.7346 C.3       1 <0>         0.0983
     19 C16        -2.4736    0.7561    1.5399 C.3       1 <0>        -0.0559
     20 C17        -4.4064   -0.8092   -0.2016 C.3       1 <0>         0.0484
     21 C18         3.9239    0.5052   -1.7291 C.3       1 <0>        -0.0356
     22 C19        -5.1431    0.4503   -0.5766 C.2       1 <0>         0.3074
     23 H1          1.4332   -0.7267   -1.3338 H         1 <0>         0.0310
     24 H2         -0.0655   -0.7286    1.3052 H         1 <0>         0.0306
     25 H3         -0.6972    0.4337   -1.4545 H         1 <0>         0.0310
     26 H4          1.5887    1.7401   -1.4740 H         1 <0>         0.0272
     27 H5          2.0084    2.6935   -0.0588 H         1 <0>         0.0272
     28 H6         -0.0873    2.0802    1.0377 H         1 <0>         0.0268
     29 H7         -0.4241    2.6669   -0.5766 H         1 <0>         0.0268
     30 H8          2.2097   -2.7529   -0.4239 H         1 <0>         0.0269
     31 H9          2.1719   -2.1513    1.2365 H         1 <0>         0.0269
     32 H10        -2.7909   -0.8081   -1.5735 H         1 <0>         0.0312
     33 H11        -0.2611   -2.9015    0.2157 H         1 <0>         0.0268
     34 H12        -0.6003   -2.1471   -1.3379 H         1 <0>         0.0268
     35 H13         4.3620   -1.5086    0.9477 H         1 <0>         0.0293
     36 H14         4.2987   -1.8207   -0.7773 H         1 <0>         0.0293
     37 H15        -2.6744   -2.9239   -0.3463 H         1 <0>         0.0268
     38 H16        -2.3500   -2.0896    1.1643 H         1 <0>         0.0268
     39 H17         2.7234    1.6359    2.0777 H         1 <0>         0.0236
     40 H18         1.2065    0.7669    2.2203 H         1 <0>         0.0236
     41 H19         2.7171   -0.1158    2.3013 H         1 <0>         0.0236
     42 H20        -2.7042    2.6459   -0.3601 H         1 <0>         0.0703
     43 H21        -2.7720    1.6431   -1.8065 H         1 <0>         0.0703
     44 H22        -2.0701    1.7203    1.8650 H         1 <0>         0.0236
     45 H23        -3.5323    0.7663    1.8175 H         1 <0>         0.0236
     46 H24        -1.9927   -0.0203    2.1405 H         1 <0>         0.0236
     47 H25        -4.6065   -1.0044    0.8581 H         1 <0>         0.0380
     48 H26        -4.8505   -1.6325   -0.7748 H         1 <0>         0.0380
     49 H27         3.8799    1.5811   -1.9312 H         1 <0>         0.0257
     50 H28         4.9423    0.1951   -1.9930 H         1 <0>         0.0257
     51 H29         3.2317   -0.0076   -2.4022 H         1 <0>         0.0257
     52 H30         4.6854    0.5535    1.3947 H         1 <0>         0.2102
@<TRIPOS>BOND
     1    1    9 1
     2    1   52 1
     3    2   18 1
     4    2   22 1
     5    3   22 2
     6    4    5 1
     7    4    6 1
     8    4   12 1
     9    4   23 1
    10    5    9 1
    11    5   10 1
    12    5   17 1
    13    6    7 1
    14    6   14 1
    15    6   24 1
    16    7    8 1
    17    7   11 1
    18    7   25 1
    19    8   13 1
    20    8   18 1
    21    8   19 1
    22    9   15 1
    23    9   21 1
    24   10   11 1
    25   10   26 1
    26   10   27 1
    27   11   28 1
    28   11   29 1
    29   12   15 1
    30   12   30 1
    31   12   31 1
    32   13   16 1
    33   13   20 1
    34   13   32 1
    35   14   16 1
    36   14   33 1
    37   14   34 1
    38   15   35 1
    39   15   36 1
    40   16   37 1
    41   16   38 1
    42   17   39 1
    43   17   40 1
    44   17   41 1
    45   18   42 1
    46   18   43 1
    47   19   44 1
    48   19   45 1
    49   19   46 1
    50   20   22 1
    51   20   47 1
    52   20   48 1
    53   21   49 1
    54   21   50 1
    55   21   51 1
