@<TRIPOS>MOLECULE
DB00187
   46    46     0     0     0
SMALL
USER_CHARGES

@<TRIPOS>ATOM
      1 O1         -2.0345    2.1538    0.3375 O.3       1 <0>        -0.4894
      2 O2         -4.7992    2.4021    0.1772 O.3       1 <0>        -0.3872
      3 O3          5.7380   -1.4925   -0.4360 O.3       1 <0>        -0.4679
      4 O4          6.2918    0.6383    0.2532 O.2       1 <0>        -0.2509
      5 N1         -3.4271   -0.9504   -0.5894 N.3       1 <0>        -0.3112
      6 C1         -4.1149    1.4300   -0.6182 C.3       1 <0>         0.1015
      7 C2         -4.1383    0.0962    0.1320 C.3       1 <0>         0.0254
      8 C3         -3.4161   -2.1924    0.1717 C.3       1 <0>         0.0021
      9 C4         -2.7034    1.9398   -0.9014 C.3       1 <0>         0.1166
     10 C5         -3.1798   -3.3656   -0.7741 C.3       1 <0>        -0.0499
     11 C6         -2.3445   -2.1385    1.2569 C.3       1 <0>        -0.0499
     12 C7          2.0889    1.6106    0.3518 C.ar      1 <0>        -0.0466
     13 C8          3.5671    1.4152    0.3574 C.3       1 <0>        -0.0176
     14 C9         -0.6770    1.9752    0.3424 C.ar      1 <0>         0.1206
     15 C10         1.4457    2.0394   -0.8093 C.ar      1 <0>        -0.0551
     16 C11         1.3489    1.3640    1.5083 C.ar      1 <0>        -0.0551
     17 C12         0.0630    2.2218   -0.8141 C.ar      1 <0>        -0.0197
     18 C13        -0.0338    1.5464    1.5037 C.ar      1 <0>        -0.0197
     19 C14         3.9666   -0.0112   -0.0413 C.3       1 <0>         0.0489
     20 C15         5.4649   -0.2120   -0.0460 C.2       1 <0>         0.3071
     21 C16         7.1260   -1.8379   -0.4888 C.3       1 <0>         0.0817
     22 H1         -4.6632    1.3365   -1.5624 H         1 <0>         0.0640
     23 H2         -5.1863   -0.1920    0.2892 H         1 <0>         0.0450
     24 H3         -3.7198    0.2509    1.1332 H         1 <0>         0.0450
     25 H4         -4.3924   -2.3630    0.6443 H         1 <0>         0.0455
     26 H5         -3.8839   -1.0936   -1.4899 H         1 <0>         0.1223
     27 H6         -2.1874    1.2167   -1.5446 H         1 <0>         0.0723
     28 H7         -2.7638    2.9042   -1.4197 H         1 <0>         0.0723
     29 H8         -3.1758   -4.3124   -0.2230 H         1 <0>         0.0245
     30 H9         -3.9689   -3.4287   -1.5319 H         1 <0>         0.0245
     31 H10        -2.2184   -3.2764   -1.2928 H         1 <0>         0.0245
     32 H11        -2.2831   -3.0982    1.7821 H         1 <0>         0.0245
     33 H12        -2.5551   -1.3744    2.0110 H         1 <0>         0.0245
     34 H13        -1.3554   -1.9312    0.8322 H         1 <0>         0.0245
     35 H14         3.9700    1.6510    1.3514 H         1 <0>         0.0318
     36 H15         4.0404    2.1382   -0.3203 H         1 <0>         0.0318
     37 H16        -4.2895    2.5276    0.9960 H         1 <0>         0.2100
     38 H17         2.0122    2.2394   -1.7151 H         1 <0>         0.0621
     39 H18         1.8377    1.0272    2.4187 H         1 <0>         0.0621
     40 H19         3.5909   -0.2337   -1.0473 H         1 <0>         0.0381
     41 H20         3.5294   -0.7306    0.6613 H         1 <0>         0.0381
     42 H21        -0.3936    2.5861   -1.7297 H         1 <0>         0.0654
     43 H22        -0.6059    1.3510    2.4065 H         1 <0>         0.0654
     44 H23         7.2052   -2.8794   -0.8117 H         1 <0>         0.0661
     45 H24         7.5779   -1.7424    0.5031 H         1 <0>         0.0661
     46 H25         7.6464   -1.2049   -1.2139 H         1 <0>         0.0661
@<TRIPOS>BOND
     1    1    9 1
     2    1   14 1
     3    2    6 1
     4    2   37 1
     5    3   20 1
     6    3   21 1
     7    4   20 2
     8    5    7 1
     9    5    8 1
    10    5   26 1
    11    6    7 1
    12    6    9 1
    13    6   22 1
    14    7   23 1
    15    7   24 1
    16    8   10 1
    17    8   11 1
    18    8   25 1
    19    9   27 1
    20    9   28 1
    21   10   29 1
    22   10   30 1
    23   10   31 1
    24   11   32 1
    25   11   33 1
    26   11   34 1
    27   12   13 1
    28   12   15 ar
    29   12   16 ar
    30   13   19 1
    31   13   35 1
    32   13   36 1
    33   14   17 ar
    34   14   18 ar
    35   15   17 ar
    36   15   38 1
    37   16   18 ar
    38   16   39 1
    39   17   42 1
    40   18   43 1
    41   19   20 1
    42   19   40 1
    43   19   41 1
    44   21   44 1
    45   21   45 1
    46   21   46 1
