@<TRIPOS>MOLECULE
DB00196
   34    36     0     0     0
SMALL
USER_CHARGES

@<TRIPOS>ATOM
      1 F1         -0.1549    0.9376    2.3719 F         1 <0>        -0.2050
      2 F2         -0.1467    4.7569   -0.4211 F         1 <0>        -0.2054
      3 O1          0.0538   -1.4840   -1.1179 O.3       1 <0>        -0.3802
      4 N1         -2.5351   -1.0896    0.2214 N.pl3     1 <0>        -0.2489
      5 N2          2.5855   -0.9802    0.2867 N.pl3     1 <0>        -0.2489
      6 N3         -3.2071    0.0308    0.4716 N.2       1 <0>        -0.1583
      7 N4          3.1230   -1.8169   -0.5947 N.2       1 <0>        -0.1583
      8 N5         -4.2796   -1.3098   -1.0400 N.2       1 <0>        -0.2228
      9 N6          4.3783    0.0729   -0.3030 N.2       1 <0>        -0.2228
     10 C1          0.0445   -0.8287    0.1750 C.3       1 <0>         0.1323
     11 C2         -1.2584   -1.3425    0.8897 C.3       1 <0>         0.0780
     12 C3          1.3213   -1.3238    0.9445 C.3       1 <0>         0.0780
     13 C4         -0.0073    0.6539    0.0193 C.ar      1 <0>         0.0228
     14 C5         -0.1060    1.4730    1.1440 C.ar      1 <0>         0.1321
     15 C6          0.0442    1.2207   -1.2543 C.ar      1 <0>        -0.0503
     16 C7         -0.1537    2.8592    0.9952 C.ar      1 <0>         0.0092
     17 C8         -0.0035    2.6067   -1.4030 C.ar      1 <0>        -0.0259
     18 C9         -3.1599   -1.8850   -0.6675 C.cat     1 <0>         0.1144
     19 C10         3.3160    0.1345    0.4660 C.cat     1 <0>         0.1144
     20 C11        -0.1023    3.4260   -0.2784 C.ar      1 <0>         0.1261
     21 C12        -4.2656   -0.1487   -0.3214 C.2       1 <0>         0.1379
     22 C13         4.2179   -1.1306   -0.9281 C.2       1 <0>         0.1379
     23 H1         -1.3549   -0.9568    1.9107 H         1 <0>         0.0542
     24 H2         -1.2016   -2.4362    0.9826 H         1 <0>         0.0542
     25 H3          1.3712   -0.9136    1.9594 H         1 <0>         0.0542
     26 H4          1.3135   -2.4181    1.0302 H         1 <0>         0.0542
     27 H5          0.0890   -2.4439   -0.9655 H         1 <0>         0.2108
     28 H6          0.1248    0.6197   -2.1549 H         1 <0>         0.0623
     29 H7         -0.2301    3.4968    1.8707 H         1 <0>         0.0675
     30 H8          0.0376    3.0490   -2.3941 H         1 <0>         0.0646
     31 H9         -2.7826   -2.8390   -1.0079 H         1 <0>         0.1044
     32 H10         3.0586    0.9384    1.1409 H         1 <0>         0.1044
     33 H11        -5.0508    0.5902   -0.3781 H         1 <0>         0.1065
     34 H12         4.9208   -1.5190   -1.6499 H         1 <0>         0.1065
@<TRIPOS>BOND
     1    1   14 1
     2    2   20 1
     3    3   10 1
     4    3   27 1
     5    4    6 1
     6    4   11 1
     7    4   18 2
     8    5    7 1
     9    5   12 1
    10    5   19 2
    11    6   21 1
    12    7   22 1
    13    8   18 1
    14    8   21 2
    15    9   19 1
    16    9   22 2
    17   10   11 1
    18   10   12 1
    19   10   13 1
    20   11   23 1
    21   11   24 1
    22   12   25 1
    23   12   26 1
    24   13   14 ar
    25   13   15 ar
    26   14   16 ar
    27   15   17 ar
    28   15   28 1
    29   16   20 ar
    30   16   29 1
    31   17   20 ar
    32   17   30 1
    33   18   31 1
    34   19   32 1
    35   21   33 1
    36   22   34 1
