@<TRIPOS>MOLECULE
DB00421
   61    65     0     0     0
SMALL
USER_CHARGES

@<TRIPOS>ATOM
      1 S1         -1.4106   -2.3837   -0.4831 S.3       1 <0>        -0.0844
      2 O1          4.6969    0.5399    0.2500 O.3       1 <0>        -0.4575
      3 O2          6.8827    0.5348   -0.4455 O.2       1 <0>        -0.2508
      4 O3         -5.4914    0.7785   -2.1184 O.2       1 <0>        -0.2927
      5 O4         -2.6627   -3.8472    1.3358 O.2       1 <0>        -0.2855
      6 C1          2.2078    0.5942    0.2757 C.3       1 <0>         0.0109
      7 C2          1.1931   -0.5691    0.3378 C.3       1 <0>        -0.0277
      8 C3         -0.2073   -0.1301    0.8030 C.3       1 <0>        -0.0214
      9 C4          3.5047   -0.1858   -0.0898 C.3       1 <0>         0.1196
     10 C5         -0.7590    0.9993   -0.1492 C.3       1 <0>        -0.0278
     11 C6          1.6809    1.6101   -0.7492 C.3       1 <0>        -0.0434
     12 C7          1.9203   -1.6237    1.1692 C.3       1 <0>        -0.0457
     13 C8         -2.1679    1.5242    0.3258 C.3       1 <0>        -0.0071
     14 C9          0.2815    2.1287   -0.3780 C.3       1 <0>        -0.0485
     15 C10         3.4022   -1.4678    0.7865 C.3       1 <0>        -0.0120
     16 C11        -1.2178   -1.2986    0.9934 C.3       1 <0>         0.0195
     17 C12         2.4212    1.3221    1.6351 C.3       1 <0>        -0.0557
     18 C13         3.7240   -0.5253   -1.5606 C.3       1 <0>        -0.0022
     19 C14        -3.0744    0.2936    0.4462 C.2       1 <0>        -0.0590
     20 C15        -2.6029   -0.7701    1.4121 C.3       1 <0>        -0.0182
     21 C16        -2.7988    2.5604   -0.6499 C.3       1 <0>        -0.0366
     22 C17        -2.0805    2.2546    1.6917 C.3       1 <0>        -0.0556
     23 C18         5.2174   -0.7669   -1.6278 C.3       1 <0>         0.0486
     24 C19         5.7248    0.1689   -0.5730 C.2       1 <0>         0.3077
     25 C20        -3.4019    1.9342   -1.8936 C.3       1 <0>         0.0107
     26 C21        -4.1493    0.0602   -0.3257 C.2       1 <0>        -0.0194
     27 C22        -4.4530    0.9362   -1.4811 C.2       1 <0>         0.1561
     28 C23        -2.5792   -3.5308    0.1554 C.2       1 <0>         0.1866
     29 C24        -3.4768   -4.0942   -0.9094 C.3       1 <0>         0.0044
     30 H1          1.0887   -0.9775   -0.6782 H         1 <0>         0.0310
     31 H2         -0.0857    0.3037    1.8017 H         1 <0>         0.0317
     32 H3         -0.9004    0.5342   -1.1361 H         1 <0>         0.0312
     33 H4          1.5988    1.1542   -1.7426 H         1 <0>         0.0272
     34 H5          2.3747    2.4536   -0.8464 H         1 <0>         0.0272
     35 H6          1.5617   -2.6349    0.9525 H         1 <0>         0.0269
     36 H7          1.7856   -1.4515    2.2431 H         1 <0>         0.0269
     37 H8          0.3540    2.7720    0.5036 H         1 <0>         0.0268
     38 H9         -0.0489    2.7740   -1.1991 H         1 <0>         0.0268
     39 H10         4.0193   -1.3908    1.6894 H         1 <0>         0.0304
     40 H11         3.7435   -2.3603    0.2499 H         1 <0>         0.0304
     41 H12        -0.8419   -1.9413    1.7985 H         1 <0>         0.0422
     42 H13         2.8440    0.6649    2.4016 H         1 <0>         0.0236
     43 H14         3.1153    2.1621    1.5140 H         1 <0>         0.0236
     44 H15         1.4992    1.7341    2.0521 H         1 <0>         0.0236
     45 H16         3.5051    0.3313   -2.2068 H         1 <0>         0.0309
     46 H17         3.1397   -1.3775   -1.9193 H         1 <0>         0.0309
     47 H18        -2.5257   -0.3301    2.4141 H         1 <0>         0.0321
     48 H19        -3.3560   -1.5536    1.5320 H         1 <0>         0.0321
     49 H20        -2.0809    3.3350   -0.9356 H         1 <0>         0.0278
     50 H21        -3.6077    3.0963   -0.1303 H         1 <0>         0.0278
     51 H22        -1.5494    1.6862    2.4588 H         1 <0>         0.0238
     52 H23        -1.5696    3.2191    1.5952 H         1 <0>         0.0238
     53 H24        -3.0822    2.4614    2.0890 H         1 <0>         0.0238
     54 H25         5.6202   -0.5077   -2.6096 H         1 <0>         0.0379
     55 H26         5.4838   -1.7931   -1.3607 H         1 <0>         0.0379
     56 H27        -2.6501    1.4315   -2.5096 H         1 <0>         0.0345
     57 H28        -3.8785    2.7133   -2.4986 H         1 <0>         0.0345
     58 H29        -4.7595   -0.8293   -0.2125 H         1 <0>         0.0652
     59 H30        -2.8898   -4.6452   -1.6496 H         1 <0>         0.0315
     60 H31        -4.0431   -3.2937   -1.3936 H         1 <0>         0.0315
     61 H32        -4.1884   -4.7872   -0.4502 H         1 <0>         0.0315
@<TRIPOS>BOND
     1    1   16 1
     2    1   28 1
     3    2    9 1
     4    2   24 1
     5    3   24 2
     6    4   27 2
     7    5   28 2
     8    6    7 1
     9    6    9 1
    10    6   11 1
    11    6   17 1
    12    7    8 1
    13    7   12 1
    14    7   30 1
    15    8   10 1
    16    8   16 1
    17    8   31 1
    18    9   15 1
    19    9   18 1
    20   10   13 1
    21   10   14 1
    22   10   32 1
    23   11   14 1
    24   11   33 1
    25   11   34 1
    26   12   15 1
    27   12   35 1
    28   12   36 1
    29   13   19 1
    30   13   21 1
    31   13   22 1
    32   14   37 1
    33   14   38 1
    34   15   39 1
    35   15   40 1
    36   16   20 1
    37   16   41 1
    38   17   42 1
    39   17   43 1
    40   17   44 1
    41   18   23 1
    42   18   45 1
    43   18   46 1
    44   19   20 1
    45   19   26 2
    46   20   47 1
    47   20   48 1
    48   21   25 1
    49   21   49 1
    50   21   50 1
    51   22   51 1
    52   22   52 1
    53   22   53 1
    54   23   24 1
    55   23   54 1
    56   23   55 1
    57   25   27 1
    58   25   56 1
    59   25   57 1
    60   26   27 1
    61   26   58 1
    62   28   29 1
    63   29   59 1
    64   29   60 1
    65   29   61 1
