@<TRIPOS>MOLECULE
DB00855
   18    17     0     0     0
SMALL
USER_CHARGES

@<TRIPOS>ATOM
      1 O1          0.6011   -1.5536    0.0235 O.2       1 <0>        -0.2918
      2 O2         -4.3492   -0.6414    0.0970 O.co2     1 <0>        -0.5498
      3 O3         -3.3951    1.4310    0.0039 O.co2     1 <0>        -0.5498
      4 N1          3.0089   -0.2670    0.0028 N.4       1 <0>         0.2239
      5 C1         -0.7923    0.4193   -0.0178 C.3       1 <0>         0.0162
      6 C2          1.7689    0.5461    0.0156 C.3       1 <0>         0.0242
      7 C3          0.5348   -0.3255    0.0049 C.2       1 <0>         0.1776
      8 C4         -2.0043   -0.5032   -0.0356 C.3       1 <0>        -0.0063
      9 C5         -3.3809    0.1699    0.0258 C.2       1 <0>         0.0421
     10 H1         -0.8276    1.0621    0.8693 H         1 <0>         0.0347
     11 H2         -0.8031    1.0618   -0.9054 H         1 <0>         0.0347
     12 H3          1.7932    1.1758   -0.8770 H         1 <0>         0.0894
     13 H4          1.7941    1.1523    0.9243 H         1 <0>         0.0894
     14 H5         -1.9775   -1.1188   -0.9438 H         1 <0>         0.0329
     15 H6         -1.9431   -1.1959    0.8139 H         1 <0>         0.0329
     16 H7          3.8455    0.3313    0.0098 H         1 <0>         0.1998
     17 H8          3.0622   -0.8607   -0.8355 H         1 <0>         0.1998
     18 H9          3.0644   -0.8834    0.8245 H         1 <0>         0.1998
@<TRIPOS>BOND
     1    1    7 2
     2    2    9 2
     3    3    9 1
     4    4    6 1
     5    4   16 1
     6    4   17 1
     7    4   18 1
     8    5    7 1
     9    5    8 1
    10    5   10 1
    11    5   11 1
    12    6    7 1
    13    6   12 1
    14    6   13 1
    15    8    9 1
    16    8   14 1
    17    8   15 1
