@<TRIPOS>MOLECULE
DB00753
   12    11     0     0     0
SMALL
USER_CHARGES

@<TRIPOS>ATOM
      1 Cl1         0.6077    2.1220    0.3118 Cl        1 <0>        -0.0813
      2 F1          2.7322    0.2176   -0.6168 F         1 <0>        -0.1667
      3 F2          1.6101   -1.6194   -0.2919 F         1 <0>        -0.1667
      4 F3          2.0688   -0.3154    1.3956 F         1 <0>        -0.1667
      5 F4         -2.7507   -0.7266    0.9109 F         1 <0>        -0.1783
      6 F5         -1.8974   -0.7767   -1.0925 F         1 <0>        -0.1783
      7 O1         -0.5910   -0.1979    0.6506 O.3       1 <0>        -0.2938
      8 C1          0.4197    0.4106   -0.1510 C.3       1 <0>         0.2315
      9 C2          1.7188   -0.3272    0.0917 C.3       1 <0>         0.4297
     10 C3         -1.8843   -0.0968    0.0797 C.3       1 <0>         0.3482
     11 H1          0.1694    0.3708   -1.2167 H         1 <0>         0.0861
     12 H2         -2.2033    0.9390   -0.0715 H         1 <0>         0.1361
@<TRIPOS>BOND
     1    1    8 1
     2    2    9 1
     3    3    9 1
     4    4    9 1
     5    5   10 1
     6    6   10 1
     7    7    8 1
     8    7   10 1
     9    8    9 1
    10    8   11 1
    11   10   12 1
