@<TRIPOS>MOLECULE
DB00137
   98    99     0     0     0
SMALL
USER_CHARGES

@<TRIPOS>ATOM
      1 O1         14.1948    2.0225    1.3464 O.3       1 <0>        -0.3877
      2 O2        -15.0286   -0.8868    0.5013 O.3       1 <0>        -0.3914
      3 C1         11.9643   -0.3590    1.1440 C.3       1 <0>        -0.0223
      4 C2         11.1075    0.0278   -0.1119 C.3       1 <0>         0.0035
      5 C3         12.1629    0.8916    2.0394 C.3       1 <0>        -0.0172
      6 C4         12.7706    2.0902    1.2966 C.3       1 <0>         0.0741
      7 C5         11.6238    1.2864   -0.7953 C.2       1 <0>        -0.0668
      8 C6        -11.4334   -0.4263    1.6310 C.3       1 <0>        -0.0076
      9 C7         11.2878   -1.4675    1.9814 C.3       1 <0>        -0.0589
     10 C8         13.3326   -0.9232    0.6882 C.3       1 <0>        -0.0589
     11 C9        -12.8521   -1.0446    1.5198 C.3       1 <0>        -0.0174
     12 C10        12.3696    2.1973   -0.1442 C.2       1 <0>        -0.0563
     13 C11       -13.7472   -0.2682    0.5672 C.3       1 <0>         0.0597
     14 C12       -10.8695   -0.0442    0.2423 C.2       1 <0>        -0.0426
     15 C13         9.6424    0.1949    0.1968 C.2       1 <0>        -0.0762
     16 C14       -13.1383   -0.2659   -0.8284 C.3       1 <0>        -0.0053
     17 C15       -11.6476   -0.0008   -0.8686 C.2       1 <0>        -0.0665
     18 C16       -10.5595   -1.4876    2.3428 C.3       1 <0>        -0.0557
     19 C17       -11.5043    0.8327    2.5252 C.3       1 <0>        -0.0557
     20 C18        11.2737    1.4588   -2.2475 C.3       1 <0>        -0.0431
     21 C19         8.6794   -0.5698   -0.3427 C.2       1 <0>        -0.0622
     22 C20        -9.4553    0.2909    0.2096 C.2       1 <0>        -0.0579
     23 C21       -11.1715    0.3098   -2.2689 C.3       1 <0>        -0.0431
     24 C22         7.2374   -0.4733   -0.0961 C.2       1 <0>        -0.0507
     25 C23        -8.9564    1.3061   -0.5108 C.2       1 <0>        -0.0586
     26 C24         6.7713    0.5989    0.8576 C.3       1 <0>        -0.0397
     27 C25        -7.5450    1.6522   -0.5830 C.2       1 <0>        -0.0504
     28 C26         6.4205   -1.3376   -0.7366 C.2       1 <0>        -0.0588
     29 C27        -7.2801    3.1340   -0.5394 C.3       1 <0>        -0.0397
     30 C28        -6.5250    0.7743   -0.6556 C.2       1 <0>        -0.0588
     31 C29         4.9777   -1.4257   -0.6394 C.2       1 <0>        -0.0613
     32 C30        -5.1047    1.0483   -0.7296 C.2       1 <0>        -0.0613
     33 C31         4.2540   -2.3276   -1.3233 C.2       1 <0>        -0.0588
     34 C32         2.8057   -2.4550   -1.2377 C.2       1 <0>        -0.0504
     35 C33        -4.0897    0.1701   -0.8018 C.2       1 <0>        -0.0588
     36 C34        -2.6559    0.4397   -0.8767 C.2       1 <0>        -0.0504
     37 C35         2.3221   -3.8810   -1.2557 C.3       1 <0>        -0.0397
     38 C36         1.9307   -1.4313   -1.1696 C.2       1 <0>        -0.0588
     39 C37        -1.7577   -0.5634   -0.9447 C.2       1 <0>        -0.0588
     40 C38        -2.3295    1.9089   -0.8247 C.3       1 <0>        -0.0397
     41 C39         0.4865   -1.5228   -1.0837 C.2       1 <0>        -0.0615
     42 C40        -0.3156   -0.4480   -1.0194 C.2       1 <0>        -0.0615
     43 H1         11.2218   -0.7988   -0.8289 H         1 <0>         0.0393
     44 H2         12.7925    0.6340    2.9010 H         1 <0>         0.0299
     45 H3         11.1899    1.1963    2.4467 H         1 <0>         0.0299
     46 H4         12.4792    3.0064    1.8229 H         1 <0>         0.0638
     47 H5         10.3538   -1.1251    2.4397 H         1 <0>         0.0235
     48 H6         11.0613   -2.3448    1.3651 H         1 <0>         0.0235
     49 H7         11.9414   -1.7952    2.7983 H         1 <0>         0.0235
     50 H8         13.8737   -0.2442    0.0235 H         1 <0>         0.0235
     51 H9         13.9789   -1.1278    1.5492 H         1 <0>         0.0235
     52 H10        13.2018   -1.8657    0.1434 H         1 <0>         0.0235
     53 H11       -12.7883   -2.0860    1.1712 H         1 <0>         0.0298
     54 H12       -13.3285   -1.1070    2.5074 H         1 <0>         0.0298
     55 H13        12.7200    3.0783   -0.6771 H         1 <0>         0.0597
     56 H14       -13.8953    0.7596    0.9161 H         1 <0>         0.0596
     57 H15         9.3830    0.9882    0.8932 H         1 <0>         0.0578
     58 H16       -13.6664    0.4893   -1.4258 H         1 <0>         0.0335
     59 H17       -13.3370   -1.2266   -1.3228 H         1 <0>         0.0335
     60 H18        -9.5957   -1.0823    2.6691 H         1 <0>         0.0238
     61 H19       -10.3656   -2.3471    1.6906 H         1 <0>         0.0238
     62 H20       -11.0580   -1.8627    3.2450 H         1 <0>         0.0238
     63 H21       -12.0848    1.6343    2.0559 H         1 <0>         0.0238
     64 H22       -10.5053    1.2339    2.7326 H         1 <0>         0.0238
     65 H23       -11.9683    0.6054    3.4919 H         1 <0>         0.0238
     66 H24        10.1892    1.5259   -2.3788 H         1 <0>         0.0275
     67 H25        11.6433    0.6085   -2.8298 H         1 <0>         0.0275
     68 H26        11.7146    2.3666   -2.6728 H         1 <0>         0.0275
     69 H27        14.5473    2.8353    0.9449 H         1 <0>         0.2102
     70 H28        -8.7803   -0.3489    0.7685 H         1 <0>         0.0621
     71 H29         8.9884   -1.3503   -1.0371 H         1 <0>         0.0617
     72 H30       -11.3467    1.3625   -2.5117 H         1 <0>         0.0275
     73 H31       -10.1223    0.0568   -2.4404 H         1 <0>         0.0275
     74 H32       -11.7298   -0.2935   -2.9953 H         1 <0>         0.0275
     75 H33       -15.4030   -0.8806    1.3988 H         1 <0>         0.2098
     76 H34        -9.6127    1.9929   -1.0395 H         1 <0>         0.0620
     77 H35         5.6887    0.6293    0.9949 H         1 <0>         0.0278
     78 H36         7.2081    0.4442    1.8507 H         1 <0>         0.0278
     79 H37         7.0663    1.5898    0.4942 H         1 <0>         0.0278
     80 H38         6.8668   -2.0707   -1.4097 H         1 <0>         0.0620
     81 H39        -6.3931    3.3878    0.0493 H         1 <0>         0.0278
     82 H40        -7.1620    3.5299   -1.5537 H         1 <0>         0.0278
     83 H41        -8.1085    3.6748   -0.0656 H         1 <0>         0.0278
     84 H42        -6.7660   -0.2887   -0.6789 H         1 <0>         0.0620
     85 H43         4.4677   -0.7377    0.0259 H         1 <0>         0.0618
     86 H44        -4.8595    2.1060   -0.7412 H         1 <0>         0.0618
     87 H45         4.7516   -3.0381   -1.9808 H         1 <0>         0.0620
     88 H46        -4.3542   -0.8879   -0.8023 H         1 <0>         0.0620
     89 H47         2.0041   -4.1642   -2.2648 H         1 <0>         0.0278
     90 H48         1.4961   -4.0515   -0.5580 H         1 <0>         0.0278
     91 H49         3.1125   -4.5771   -0.9494 H         1 <0>         0.0278
     92 H50         2.3246   -0.4153   -1.1797 H         1 <0>         0.0620
     93 H51        -2.1337   -1.5868   -0.9561 H         1 <0>         0.0620
     94 H52        -2.7007    2.3638    0.1009 H         1 <0>         0.0278
     95 H53        -1.2561    2.1118   -0.8496 H         1 <0>         0.0278
     96 H54        -2.7585    2.4369   -1.6841 H         1 <0>         0.0278
     97 H55         0.0394   -2.5124   -1.0868 H         1 <0>         0.0618
     98 H56         0.1257    0.5428   -1.0246 H         1 <0>         0.0618
@<TRIPOS>BOND
     1    1    6 1
     2    1   69 1
     3    2   13 1
     4    2   75 1
     5    3    4 1
     6    3    5 1
     7    3    9 1
     8    3   10 1
     9    4    7 1
    10    4   15 1
    11    4   43 1
    12    5    6 1
    13    5   44 1
    14    5   45 1
    15    6   12 1
    16    6   46 1
    17    7   12 2
    18    7   20 1
    19    8   11 1
    20    8   14 1
    21    8   18 1
    22    8   19 1
    23    9   47 1
    24    9   48 1
    25    9   49 1
    26   10   50 1
    27   10   51 1
    28   10   52 1
    29   11   13 1
    30   11   53 1
    31   11   54 1
    32   12   55 1
    33   13   16 1
    34   13   56 1
    35   14   17 2
    36   14   22 1
    37   15   21 2
    38   15   57 1
    39   16   17 1
    40   16   58 1
    41   16   59 1
    42   17   23 1
    43   18   60 1
    44   18   61 1
    45   18   62 1
    46   19   63 1
    47   19   64 1
    48   19   65 1
    49   20   66 1
    50   20   67 1
    51   20   68 1
    52   21   24 1
    53   21   71 1
    54   22   25 2
    55   22   70 1
    56   23   72 1
    57   23   73 1
    58   23   74 1
    59   24   26 1
    60   24   28 2
    61   25   27 1
    62   25   76 1
    63   26   77 1
    64   26   78 1
    65   26   79 1
    66   27   29 1
    67   27   30 2
    68   28   31 1
    69   28   80 1
    70   29   81 1
    71   29   82 1
    72   29   83 1
    73   30   32 1
    74   30   84 1
    75   31   33 2
    76   31   85 1
    77   32   35 2
    78   32   86 1
    79   33   34 1
    80   33   87 1
    81   34   37 1
    82   34   38 2
    83   35   36 1
    84   35   88 1
    85   36   39 2
    86   36   40 1
    87   37   89 1
    88   37   90 1
    89   37   91 1
    90   38   41 1
    91   38   92 1
    92   39   42 1
    93   39   93 1
    94   40   94 1
    95   40   95 1
    96   40   96 1
    97   41   42 2
    98   41   97 1
    99   42   98 1
