@<TRIPOS>MOLECULE
DB00697
   24    26     0     0     0
SMALL
USER_CHARGES

@<TRIPOS>ATOM
      1 Cl1        -1.9225   -3.1480    0.4342 Cl        1 <0>        -0.0801
      2 S1         -1.3248    3.1379   -0.6737 S.3       1 <0>         0.1166
      3 N1          2.5028   -0.8681   -0.6330 N.pl3     1 <0>        -0.2350
      4 N2          0.2448   -1.1251   -0.2028 N.pl3     1 <0>        -0.2030
      5 N3          1.5837    0.4568    0.9639 N.2       1 <0>        -0.1140
      6 N4         -0.4643    1.7216   -0.5655 N.2       1 <0>        -0.1874
      7 N5         -2.8630    2.5921   -0.3666 N.2       1 <0>        -0.1907
      8 C1          3.6466   -0.1115   -0.2240 C.3       1 <0>         0.0920
      9 C2          3.0359    0.7920    0.8549 C.3       1 <0>         0.1328
     10 C3          1.4016   -0.4912    0.0758 C.2       1 <0>         0.3695
     11 C4         -1.0622   -0.6186   -0.0997 C.ar      1 <0>         0.1382
     12 C5         -1.3520    0.7549   -0.2820 C.ar      1 <0>         0.1375
     13 C6         -2.7662    1.2682   -0.1647 C.ar      1 <0>         0.1032
     14 C7         -2.1613   -1.4444    0.1909 C.ar      1 <0>         0.0795
     15 C8         -3.8346    0.3876    0.1303 C.ar      1 <0>        -0.0319
     16 C9         -3.4872   -0.9633    0.3009 C.ar      1 <0>        -0.0381
     17 H1          4.0578    0.4730   -1.0520 H         1 <0>         0.0665
     18 H2          4.4276   -0.7572    0.1876 H         1 <0>         0.0665
     19 H3          3.5212    0.6297    1.8231 H         1 <0>         0.0723
     20 H4          3.1460    1.8487    0.5894 H         1 <0>         0.0723
     21 H5          2.5277   -1.5800   -1.3526 H         1 <0>         0.2445
     22 H6          0.2946   -2.0188   -0.6841 H         1 <0>         0.2513
     23 H7         -4.8602    0.7261    0.2208 H         1 <0>         0.0640
     24 H8         -4.2919   -1.6625    0.5290 H         1 <0>         0.0634
@<TRIPOS>BOND
     1    1   14 1
     2    2    6 1
     3    2    7 1
     4    3    8 1
     5    3   10 1
     6    3   21 1
     7    4   10 1
     8    4   11 1
     9    4   22 1
    10    5    9 1
    11    5   10 2
    12    6   12 2
    13    7   13 2
    14    8    9 1
    15    8   17 1
    16    8   18 1
    17    9   19 1
    18    9   20 1
    19   11   12 ar
    20   11   14 ar
    21   12   13 ar
    22   13   15 ar
    23   14   16 ar
    24   15   16 ar
    25   15   23 1
    26   16   24 1
