@<TRIPOS>MOLECULE
DB00417
   42    44     0     0     0
SMALL
USER_CHARGES

@<TRIPOS>ATOM
      1 S1          2.0502    0.2741   -1.3532 S.3       1 <0>        -0.1273
      2 O1          1.7342   -1.3732    2.7210 O.2       1 <0>        -0.2734
      3 O2          5.8469    0.6703    1.4634 O.3       1 <0>        -0.4793
      4 O3          5.3551   -1.5554    1.4864 O.2       1 <0>        -0.2489
      5 O4         -1.6089   -2.2753   -1.0116 O.2       1 <0>        -0.2721
      6 O5         -3.6818   -0.5524   -0.9772 O.3       1 <0>        -0.4828
      7 N1          2.8663   -1.1387    0.6633 N.am      1 <0>        -0.2708
      8 N2         -0.2782   -0.8776    0.2833 N.am      1 <0>        -0.2989
      9 C1          2.0965   -1.3751   -0.5615 C.3       1 <0>         0.1005
     10 C2          3.7172    0.7047   -0.6422 C.3       1 <0>         0.0417
     11 C3          3.7008    0.0425    0.7524 C.3       1 <0>         0.1379
     12 C4          0.9069   -1.7453    0.3348 C.3       1 <0>         0.1278
     13 C5          1.8491   -1.4496    1.5188 C.2       1 <0>         0.2402
     14 C6          4.7913    0.1598   -1.5934 C.3       1 <0>        -0.0484
     15 C7          3.8345    2.2262   -0.5357 C.3       1 <0>        -0.0484
     16 C8          5.0342   -0.3968    1.2674 C.2       1 <0>         0.3269
     17 C9         -1.4465   -1.2257   -0.3950 C.2       1 <0>         0.2513
     18 C10        -2.5132   -0.1575   -0.2905 C.3       1 <0>         0.1652
     19 C11        -4.8811   -0.0811   -0.4975 C.ar      1 <0>         0.1212
     20 C12        -4.9253    1.1501    0.1419 C.ar      1 <0>        -0.0199
     21 C13        -6.0292   -0.8441   -0.6597 C.ar      1 <0>        -0.0199
     22 C14        -6.1420    1.6276    0.6292 C.ar      1 <0>        -0.0583
     23 C15        -7.2458   -0.3663   -0.1724 C.ar      1 <0>        -0.0583
     24 C16        -7.3021    0.8695    0.4719 C.ar      1 <0>        -0.0615
     25 H1          2.5074   -2.1847   -1.1717 H         1 <0>         0.0640
     26 H2          3.2504    0.7002    1.5078 H         1 <0>         0.0631
     27 H3          0.6390   -2.8085    0.2929 H         1 <0>         0.0622
     28 H4          4.6738    0.5666   -2.6050 H         1 <0>         0.0244
     29 H5          5.7965    0.4389   -1.2586 H         1 <0>         0.0244
     30 H6          4.7644   -0.9332   -1.6671 H         1 <0>         0.0244
     31 H7          3.7515    2.7053   -1.5185 H         1 <0>         0.0244
     32 H8          3.0563    2.6508    0.1092 H         1 <0>         0.0244
     33 H9          4.8023    2.5201   -0.1156 H         1 <0>         0.0244
     34 H10        -0.2570    0.0248    0.7531 H         1 <0>         0.1496
     35 H11         6.7283    0.4026    1.8008 H         1 <0>         0.2951
     36 H12        -2.6940   -0.0131    0.7830 H         1 <0>         0.0795
     37 H13        -2.1226    0.7664   -0.7323 H         1 <0>         0.0795
     38 H14        -4.0503    1.7818    0.2589 H         1 <0>         0.0654
     39 H15        -5.9885   -1.8069   -1.1607 H         1 <0>         0.0654
     40 H16        -6.1876    2.5927    1.1253 H         1 <0>         0.0619
     41 H17        -8.1492   -0.9564   -0.2951 H         1 <0>         0.0619
     42 H18        -8.2496    1.2421    0.8499 H         1 <0>         0.0618
@<TRIPOS>BOND
     1    1    9 1
     2    1   10 1
     3    2   13 2
     4    3   16 1
     5    3   35 1
     6    4   16 2
     7    5   17 2
     8    6   18 1
     9    6   19 1
    10    7    9 1
    11    7   11 1
    12    7   13 am
    13    8   12 1
    14    8   17 am
    15    8   34 1
    16    9   12 1
    17    9   25 1
    18   10   11 1
    19   10   14 1
    20   10   15 1
    21   11   16 1
    22   11   26 1
    23   12   13 1
    24   12   27 1
    25   14   28 1
    26   14   29 1
    27   14   30 1
    28   15   31 1
    29   15   32 1
    30   15   33 1
    31   17   18 1
    32   18   36 1
    33   18   37 1
    34   19   20 ar
    35   19   21 ar
    36   20   22 ar
    37   20   38 1
    38   21   23 ar
    39   21   39 1
    40   22   24 ar
    41   22   40 1
    42   23   24 ar
    43   23   41 1
    44   24   42 1
