@<TRIPOS>MOLECULE
DB00201
   24    25     0     0     0
SMALL
USER_CHARGES

@<TRIPOS>ATOM
      1 O1          0.6863   -2.4644   -0.0003 O.2       1 <0>        -0.2652
      2 O2         -3.2251    0.1269    0.0008 O.2       1 <0>        -0.2462
      3 N1         -1.1773    1.2317    0.0004 N.am      1 <0>        -0.2796
      4 N2          2.1521    0.1435    0.0006 N.pl3     1 <0>        -0.3277
      5 N3         -1.2865   -1.1879    0.0005 N.am      1 <0>        -0.2622
      6 N4          1.1184    2.1187    0.0001 N.2       1 <0>        -0.2177
      7 C1          0.8135   -0.1259    0.0011 C.2       1 <0>         0.1512
      8 C2          0.2045    1.0993    0.0008 C.cat     1 <0>         0.1678
      9 C3          0.1215   -1.3739    0.0009 C.2       1 <0>         0.2822
     10 C4         -1.9900    0.0706    0.0008 C.2       1 <0>         0.3331
     11 C5          2.2854    1.5080   -0.0000 C.2       1 <0>         0.0986
     12 C6         -1.7881    2.5552   -0.0003 C.3       1 <0>         0.0181
     13 C7          3.2395   -0.8057   -0.0001 C.3       1 <0>         0.0135
     14 C8         -2.1058   -2.3955   -0.0003 C.3       1 <0>         0.0196
     15 H1          3.2497    1.9978   -0.0005 H         1 <0>         0.1029
     16 H2         -1.4640    3.0961    0.8942 H         1 <0>         0.0458
     17 H3         -2.8794    2.4964   -0.0006 H         1 <0>         0.0458
     18 H4         -1.4636    3.0952   -0.8952 H         1 <0>         0.0458
     19 H5          4.1921   -0.2698   -0.0000 H         1 <0>         0.0456
     20 H6          3.1621   -1.4214    0.8994 H         1 <0>         0.0456
     21 H7          3.1617   -1.4205   -0.9002 H         1 <0>         0.0456
     22 H8         -1.5114   -3.3117    0.0006 H         1 <0>         0.0458
     23 H9         -2.7467   -2.3816   -0.8877 H         1 <0>         0.0458
     24 H10        -2.7491   -2.3813    0.8853 H         1 <0>         0.0458
@<TRIPOS>BOND
     1    1    9 2
     2    2   10 2
     3    3    8 2
     4    3   10 am
     5    3   12 1
     6    4    7 2
     7    4   11 1
     8    4   13 1
     9    5    9 am
    10    5   10 am
    11    5   14 1
    12    6    8 1
    13    6   11 2
    14    7    8 1
    15    7    9 1
    16   11   15 1
    17   12   16 1
    18   12   17 1
    19   12   18 1
    20   13   19 1
    21   13   20 1
    22   13   21 1
    23   14   22 1
    24   14   23 1
    25   14   24 1
