@<TRIPOS>MOLECULE
DB00474
   37    37     0     0     0
SMALL
USER_CHARGES

@<TRIPOS>ATOM
      1 O1          2.4443   -0.4588   -1.6919 O.2       1 <0>        -0.2740
      2 O2         -0.5757   -1.0682    1.7654 O.2       1 <0>        -0.2742
      3 O3          3.5344    0.7328    2.6644 O.2       1 <0>        -0.2518
      4 N1          2.9966    0.3266    0.4291 N.am      1 <0>        -0.2279
      5 N2          1.4649   -0.1050    2.1779 N.am      1 <0>        -0.2388
      6 C1          0.6405   -0.1497   -0.1181 C.3       1 <0>         0.1401
      7 C2          0.0921    1.2750   -0.3148 C.3       1 <0>         0.0405
      8 C3         -0.1571   -1.1201   -1.0035 C.3       1 <0>        -0.0114
      9 C4          2.1053   -0.1377   -0.5517 C.2       1 <0>         0.2393
     10 C5          0.4393   -0.5167    1.3429 C.2       1 <0>         0.2369
     11 C6          0.3166    1.7348   -1.7496 C.3       1 <0>        -0.0500
     12 C7          2.7236    0.3652    1.8102 C.2       1 <0>         0.3146
     13 C8          0.2480   -2.5321   -0.7392 C.2       1 <0>        -0.0896
     14 C9         -1.3372    1.3152    0.0277 C.1       1 <0>        -0.0976
     15 C10         4.3566    0.6469    0.0120 C.3       1 <0>         0.0124
     16 C11        -0.5902   -3.4721   -0.2883 C.2       1 <0>        -0.1026
     17 C12        -2.5047    1.3551    0.3071 C.1       1 <0>        -0.1022
     18 C13        -3.9314    1.4036    0.6486 C.3       1 <0>         0.0063
     19 C14        -4.6424    0.1290    0.2266 C.3       1 <0>        -0.0543
     20 H1          0.6178    1.9789    0.3446 H         1 <0>         0.0445
     21 H2          0.0141   -0.9440   -2.0716 H         1 <0>         0.0322
     22 H3         -1.2392   -1.0324   -0.8527 H         1 <0>         0.0322
     23 H4          1.3741    1.8075   -2.0175 H         1 <0>         0.0242
     24 H5         -0.1987    1.1210   -2.4943 H         1 <0>         0.0242
     25 H6         -0.0894    2.7476   -1.8739 H         1 <0>         0.0242
     26 H7          1.3017   -0.2095    3.1755 H         1 <0>         0.1591
     27 H8          1.2748   -2.8219   -0.9458 H         1 <0>         0.0567
     28 H9          4.9793   -0.2390    0.1712 H         1 <0>         0.0434
     29 H10         4.7550    1.4698    0.6126 H         1 <0>         0.0434
     30 H11         4.3890    0.9236   -1.0454 H         1 <0>         0.0434
     31 H12        -0.2408   -4.4859   -0.1253 H         1 <0>         0.0532
     32 H13        -1.6305   -3.2531   -0.0741 H         1 <0>         0.0532
     33 H14        -4.0494    1.5451    1.7286 H         1 <0>         0.0395
     34 H15        -4.4017    2.2623    0.1570 H         1 <0>         0.0395
     35 H16        -4.2099   -0.7474    0.7220 H         1 <0>         0.0239
     36 H17        -5.7036    0.1801    0.4896 H         1 <0>         0.0239
     37 H18        -4.5663   -0.0267   -0.8551 H         1 <0>         0.0239
@<TRIPOS>BOND
     1    1    9 2
     2    2   10 2
     3    3   12 2
     4    4    9 am
     5    4   12 am
     6    4   15 1
     7    5   10 am
     8    5   12 am
     9    5   26 1
    10    6    7 1
    11    6    8 1
    12    6    9 1
    13    6   10 1
    14    7   11 1
    15    7   14 1
    16    7   20 1
    17    8   13 1
    18    8   21 1
    19    8   22 1
    20   11   23 1
    21   11   24 1
    22   11   25 1
    23   13   16 2
    24   13   27 1
    25   14   17 3
    26   15   28 1
    27   15   29 1
    28   15   30 1
    29   16   31 1
    30   16   32 1
    31   17   18 1
    32   18   19 1
    33   18   33 1
    34   18   34 1
    35   19   35 1
    36   19   36 1
    37   19   37 1
