@<TRIPOS>MOLECULE
DB00190
   30    30     0     0     0
SMALL
USER_CHARGES

@<TRIPOS>ATOM
      1 O1          0.8708   -1.1498    1.7252 O.3       1 <0>        -0.4793
      2 O2          2.1009   -2.2589    0.1875 O.2       1 <0>        -0.2489
      3 O3         -3.4076   -2.2518   -0.2310 O.3       1 <0>        -0.5033
      4 O4         -4.7125    0.0803    0.5312 O.3       1 <0>        -0.5033
      5 N1          3.0408    0.1688   -0.7863 N.3       1 <0>        -0.2426
      6 N2          4.0158    0.0367    0.2421 N.3       1 <0>        -0.2695
      7 C1          1.7135    0.1269   -0.1544 C.3       1 <0>         0.1305
      8 C2          0.6366    0.2817   -1.2555 C.3       1 <0>         0.0021
      9 C3         -0.7971    0.2244   -0.7769 C.ar      1 <0>        -0.0414
     10 C4          1.6758    1.2870    0.8526 C.3       1 <0>        -0.0348
     11 C5          1.6004   -1.2113    0.5813 C.2       1 <0>         0.3264
     12 C6         -1.4442   -0.9983   -0.7253 C.ar      1 <0>        -0.0133
     13 C7         -1.4320    1.3959   -0.4014 C.ar      1 <0>        -0.0548
     14 C8         -2.7666   -1.0511   -0.2846 C.ar      1 <0>         0.1585
     15 C9         -2.7542    1.3430    0.0393 C.ar      1 <0>        -0.0163
     16 C10        -3.4216    0.1196    0.0978 C.ar      1 <0>         0.1582
     17 H1          0.7894    1.2260   -1.7977 H         1 <0>         0.0337
     18 H2          0.7707   -0.5040   -2.0137 H         1 <0>         0.0337
     19 H3          1.8861    2.2471    0.3649 H         1 <0>         0.0253
     20 H4          2.3785    1.1700    1.6867 H         1 <0>         0.0253
     21 H5          0.6937    1.3807    1.3282 H         1 <0>         0.0253
     22 H6          3.1413   -0.5917   -1.4578 H         1 <0>         0.1415
     23 H7         -0.9383   -1.9126   -1.0237 H         1 <0>         0.0658
     24 H8         -0.9235    2.3545   -0.4480 H         1 <0>         0.0621
     25 H9         -3.2529    2.2629    0.3333 H         1 <0>         0.0655
     26 H10         4.1146   -0.9443    0.5026 H         1 <0>         0.1368
     27 H11         4.9238    0.3105   -0.1317 H         1 <0>         0.1368
     28 H12         0.8091   -2.0235    2.1670 H         1 <0>         0.2951
     29 H13        -4.3115   -2.1017    0.0960 H         1 <0>         0.2923
     30 H14        -4.9998    0.9828    0.7525 H         1 <0>         0.2923
@<TRIPOS>BOND
     1    1   11 1
     2    1   28 1
     3    2   11 2
     4    3   14 1
     5    3   29 1
     6    4   16 1
     7    4   30 1
     8    5    6 1
     9    5    7 1
    10    5   22 1
    11    6   26 1
    12    6   27 1
    13    7    8 1
    14    7   10 1
    15    7   11 1
    16    8    9 1
    17    8   17 1
    18    8   18 1
    19    9   12 ar
    20    9   13 ar
    21   10   19 1
    22   10   20 1
    23   10   21 1
    24   12   14 ar
    25   12   23 1
    26   13   15 ar
    27   13   24 1
    28   14   16 ar
    29   15   16 ar
    30   15   25 1
