@<TRIPOS>MOLECULE
DB00558
   43    43     0     0     0
SMALL
USER_CHARGES

@<TRIPOS>ATOM
      1 O1         -1.1163   -1.5380    0.2281 O.3       1 <0>        -0.4775
      2 O2         -2.0278    0.6882    1.6579 O.3       1 <0>        -0.3854
      3 O3         -3.3953   -0.0609   -1.6536 O.3       1 <0>        -0.3868
      4 O4         -5.8111    0.2689   -0.3712 O.3       1 <0>        -0.3924
      5 O5          1.9464    2.4446    1.6330 O.2       1 <0>        -0.2761
      6 O6         -1.6321   -4.0166    0.4595 O.3       1 <0>        -0.4750
      7 O7          0.5355   -4.6919    0.1857 O.2       1 <0>        -0.2417
      8 N1          0.7008    1.7103   -0.1914 N.am      1 <0>        -0.3053
      9 N2          2.7705   -0.3150    0.6692 N.2       1 <0>        -0.1040
     10 N3          5.0751   -0.2955    0.8711 N.pl3     1 <0>        -0.2892
     11 N4          4.2210   -0.9112   -1.1504 N.pl3     1 <0>        -0.2892
     12 C1         -0.8870   -0.1963   -0.2421 C.3       1 <0>         0.1505
     13 C2          0.4579    0.3594    0.2653 C.3       1 <0>         0.1030
     14 C3         -2.0831    0.6256    0.2355 C.3       1 <0>         0.1217
     15 C4          1.6042   -0.5613   -0.1893 C.3       1 <0>         0.1588
     16 C5         -3.4255    0.0449   -0.2256 C.3       1 <0>         0.1075
     17 C6          1.2230   -2.0060   -0.0951 C.2       1 <0>         0.0067
     18 C7         -0.0440   -2.3877    0.1171 C.2       1 <0>         0.2042
     19 C8         -4.6382    0.8990    0.1372 C.3       1 <0>         0.0727
     20 C9          1.4270    2.6374    0.5370 C.2       1 <0>         0.2104
     21 C10        -0.3128   -3.8201    0.2524 C.2       1 <0>         0.3717
     22 C11         3.9335   -0.5046    0.1336 C.2       1 <0>         0.3771
     23 C12         1.5493    3.9558   -0.1791 C.3       1 <0>         0.0122
     24 H1         -0.8726   -0.2180   -1.3404 H         1 <0>         0.0780
     25 H2          0.4505    0.3693    1.3645 H         1 <0>         0.0575
     26 H3         -1.9896    1.6499   -0.1436 H         1 <0>         0.0658
     27 H4          1.8087   -0.3247   -1.2408 H         1 <0>         0.0796
     28 H5         -3.5908   -0.9609    0.1797 H         1 <0>         0.0643
     29 H6          0.3748    1.9626   -1.1202 H         1 <0>         0.1492
     30 H7          2.0190   -2.7386   -0.1976 H         1 <0>         0.0647
     31 H8         -4.5691    1.8905   -0.3223 H         1 <0>         0.0584
     32 H9         -4.7388    1.0058    1.2214 H         1 <0>         0.0584
     33 H10        -2.1218   -0.2182    1.9979 H         1 <0>         0.2101
     34 H11        -2.8854   -0.8574   -1.8787 H         1 <0>         0.2100
     35 H12         1.8934    4.7232    0.5198 H         1 <0>         0.0322
     36 H13         2.2712    3.8604   -0.9947 H         1 <0>         0.0322
     37 H14         0.5803    4.2618   -0.5837 H         1 <0>         0.0322
     38 H15        -6.5647    0.8331   -0.1281 H         1 <0>         0.2095
     39 H16         5.0255    0.0075    1.8377 H         1 <0>         0.2546
     40 H17         5.9972   -0.4381    0.4738 H         1 <0>         0.2546
     41 H18         5.1833   -1.0167   -1.4538 H         1 <0>         0.2546
     42 H19         3.5108   -1.1528   -1.8308 H         1 <0>         0.2546
     43 H20        -1.8527   -4.9677    0.5553 H         1 <0>         0.2955
@<TRIPOS>BOND
     1    1   12 1
     2    1   18 1
     3    2   14 1
     4    2   33 1
     5    3   16 1
     6    3   34 1
     7    4   19 1
     8    4   38 1
     9    5   20 2
    10    6   21 1
    11    6   43 1
    12    7   21 2
    13    8   13 1
    14    8   20 am
    15    8   29 1
    16    9   15 1
    17    9   22 2
    18   10   22 1
    19   10   39 1
    20   10   40 1
    21   11   22 1
    22   11   41 1
    23   11   42 1
    24   12   13 1
    25   12   14 1
    26   12   24 1
    27   13   15 1
    28   13   25 1
    29   14   16 1
    30   14   26 1
    31   15   17 1
    32   15   27 1
    33   16   19 1
    34   16   28 1
    35   17   18 2
    36   17   30 1
    37   18   21 1
    38   19   31 1
    39   19   32 1
    40   20   23 1
    41   23   35 1
    42   23   36 1
    43   23   37 1
