@<TRIPOS>MOLECULE
DB00932
   75    78     0     0     0
SMALL
USER_CHARGES

@<TRIPOS>ATOM
      1 S1         -5.0313   -2.1917   -0.7998 S.o2      1 <0>         0.0896
      2 F1         -2.2507    3.4225   -3.1224 F         1 <0>        -0.1658
      3 F2         -4.3604    3.9397   -3.2168 F         1 <0>        -0.1658
      4 F3         -3.2726    4.1704   -1.3547 F         1 <0>        -0.1658
      5 O1          3.3461   -1.1800    0.8720 O.3       1 <0>        -0.4543
      6 O2         -0.1960   -1.5984   -1.2573 O.3       1 <0>        -0.5104
      7 O3          2.6905   -2.8044    2.2941 O.2       1 <0>        -0.2452
      8 O4         -6.4512   -2.2508   -1.0924 O.2       1 <0>        -0.1485
      9 O5         -4.1388   -3.1893   -1.3582 O.2       1 <0>        -0.1485
     10 N1         -4.8141   -2.0938    0.9065 N.pl3     1 <0>        -0.2149
     11 N2         -5.2925    0.4039   -0.9710 N.ar      1 <0>        -0.2348
     12 C1          2.9757   -0.1281   -0.0528 C.3       1 <0>         0.1209
     13 C2          2.0761   -0.7040   -1.1479 C.3       1 <0>         0.0452
     14 C3          2.3056    1.0088    0.7332 C.3       1 <0>        -0.0084
     15 C4          4.2786    0.3913   -0.6697 C.3       1 <0>        -0.0126
     16 C5          0.9817   -1.5239   -0.5413 C.2       1 <0>         0.1084
     17 C6          1.1266   -2.1457    0.6395 C.2       1 <0>         0.0811
     18 C7          1.8927    2.1457   -0.1953 C.3       1 <0>        -0.0241
     19 C8          0.0612   -2.9719    1.2964 C.3       1 <0>         0.0190
     20 C9          5.2638   -0.7460   -0.8967 C.3       1 <0>        -0.0523
     21 C10         2.4355   -2.0738    1.3419 C.2       1 <0>         0.3395
     22 C11        -0.2645   -4.2181    0.4443 C.3       1 <0>        -0.0447
     23 C12        -1.1613   -2.1283    1.6181 C.ar      1 <0>        -0.0379
     24 C13         1.2217    3.2591    0.5680 C.ar      1 <0>        -0.0472
     25 C14         6.5476   -0.2345   -1.5307 C.3       1 <0>        -0.0652
     26 C15         0.9614   -5.0702    0.1360 C.3       1 <0>        -0.0644
     27 C16        -2.4122   -2.4948    1.1214 C.ar      1 <0>        -0.0356
     28 C17        -1.0320   -0.9872    2.4098 C.ar      1 <0>        -0.0579
     29 C18        -0.1611    3.2453    0.7504 C.ar      1 <0>        -0.0586
     30 C19         1.9840    4.3031    1.0918 C.ar      1 <0>        -0.0586
     31 C20        -3.5337   -1.7199    1.4162 C.ar      1 <0>         0.0484
     32 C21        -2.1538   -0.2124    2.7047 C.ar      1 <0>        -0.0597
     33 C22        -3.4047   -0.5786    2.2078 C.ar      1 <0>        -0.0393
     34 C23        -0.7818    4.2757    1.4566 C.ar      1 <0>        -0.0615
     35 C24         1.3634    5.3335    1.7982 C.ar      1 <0>        -0.0615
     36 C25        -0.0196    5.3198    1.9804 C.ar      1 <0>        -0.0617
     37 C26        -4.4634   -0.6015   -1.3306 C.ar      1 <0>         0.1969
     38 C27        -3.2871   -0.4205   -2.0402 C.ar      1 <0>        -0.0157
     39 C28        -2.9394    0.8757   -2.4039 C.ar      1 <0>        -0.0453
     40 C29        -3.7668    1.9363   -2.0521 C.ar      1 <0>         0.0730
     41 C30        -4.9216    1.6499   -1.3420 C.ar      1 <0>         0.0414
     42 C31        -3.4233    3.3341   -2.4262 C.3       1 <0>         0.4188
     43 H1          2.6417   -1.3908   -1.7904 H         1 <0>         0.0382
     44 H2          1.6864    0.0621   -1.8220 H         1 <0>         0.0382
     45 H3          2.9873    1.3740    1.5137 H         1 <0>         0.0307
     46 H4          1.4330    0.6401    1.2848 H         1 <0>         0.0307
     47 H5          4.0894    0.9269   -1.6078 H         1 <0>         0.0304
     48 H6          4.7591    1.1057    0.0122 H         1 <0>         0.0304
     49 H7          1.1862    1.8161   -0.9630 H         1 <0>         0.0314
     50 H8          2.7524    2.5631   -0.7315 H         1 <0>         0.0314
     51 H9          0.4041   -3.3512    2.2684 H         1 <0>         0.0400
     52 H10         5.5404   -1.2286    0.0476 H         1 <0>         0.0264
     53 H11         4.8382   -1.5168   -1.5473 H         1 <0>         0.0264
     54 H12        -0.9698   -4.8587    0.9906 H         1 <0>         0.0272
     55 H13        -0.7381   -3.9630   -0.5110 H         1 <0>         0.0272
     56 H14         6.3486    0.2264   -2.5036 H         1 <0>         0.0230
     57 H15         7.2496   -1.0600   -1.6848 H         1 <0>         0.0230
     58 H16         7.0343    0.5088   -0.8909 H         1 <0>         0.0230
     59 H17        -0.0760   -1.1098   -2.0891 H         1 <0>         0.2917
     60 H18         1.6613   -4.5581   -0.5308 H         1 <0>         0.0230
     61 H19         0.6547   -5.9957   -0.3628 H         1 <0>         0.0230
     62 H20         1.4908   -5.3450    1.0540 H         1 <0>         0.0230
     63 H21        -2.5557   -3.3922    0.5343 H         1 <0>         0.0639
     64 H22        -0.0684   -0.6933    2.8167 H         1 <0>         0.0620
     65 H23        -0.7661    2.4363    0.3490 H         1 <0>         0.0620
     66 H24         3.0623    4.3238    0.9581 H         1 <0>         0.0620
     67 H25        -2.0533    0.6757    3.3218 H         1 <0>         0.0618
     68 H26        -4.2713    0.0341    2.4422 H         1 <0>         0.0636
     69 H27        -1.8586    4.2644    1.5983 H         1 <0>         0.0618
     70 H28         1.9568    6.1463    2.2066 H         1 <0>         0.0618
     71 H29        -0.5028    6.1220    2.5304 H         1 <0>         0.0618
     72 H30        -5.6150   -1.7324    1.4409 H         1 <0>         0.1737
     73 H31        -2.6526   -1.2528   -2.3197 H         1 <0>         0.0653
     74 H32        -2.0212    1.0396   -2.9609 H         1 <0>         0.0625
     75 H33        -5.6060    2.4365   -1.0393 H         1 <0>         0.0836
@<TRIPOS>BOND
     1    1    8 2
     2    1    9 2
     3    1   10 1
     4    1   37 1
     5    2   42 1
     6    3   42 1
     7    4   42 1
     8    5   12 1
     9    5   21 1
    10    6   16 1
    11    6   59 1
    12    7   21 2
    13   10   31 1
    14   10   72 1
    15   11   37 ar
    16   11   41 ar
    17   12   13 1
    18   12   14 1
    19   12   15 1
    20   13   16 1
    21   13   43 1
    22   13   44 1
    23   14   18 1
    24   14   45 1
    25   14   46 1
    26   15   20 1
    27   15   47 1
    28   15   48 1
    29   16   17 2
    30   17   19 1
    31   17   21 1
    32   18   24 1
    33   18   49 1
    34   18   50 1
    35   19   22 1
    36   19   23 1
    37   19   51 1
    38   20   25 1
    39   20   52 1
    40   20   53 1
    41   22   26 1
    42   22   54 1
    43   22   55 1
    44   23   27 ar
    45   23   28 ar
    46   24   29 ar
    47   24   30 ar
    48   25   56 1
    49   25   57 1
    50   25   58 1
    51   26   60 1
    52   26   61 1
    53   26   62 1
    54   27   31 ar
    55   27   63 1
    56   28   32 ar
    57   28   64 1
    58   29   34 ar
    59   29   65 1
    60   30   35 ar
    61   30   66 1
    62   31   33 ar
    63   32   33 ar
    64   32   67 1
    65   33   68 1
    66   34   36 ar
    67   34   69 1
    68   35   36 ar
    69   35   70 1
    70   36   71 1
    71   37   38 ar
    72   38   39 ar
    73   38   73 1
    74   39   40 ar
    75   39   74 1
    76   40   41 ar
    77   40   42 1
    78   41   75 1
