@<TRIPOS>MOLECULE
DB00942
   50    52     0     0     0
SMALL
USER_CHARGES

@<TRIPOS>ATOM
      1 O1          1.9714    0.1526   -2.0436 O.3       1 <0>        -0.3836
      2 N1         -2.3194   -0.6106    0.1035 N.3       1 <0>        -0.3022
      3 C1          2.1235   -0.8830    0.0654 C.3       1 <0>        -0.0079
      4 C2          1.3746    0.1697   -0.7326 C.3       1 <0>         0.0949
      5 C3          1.9898   -2.2869   -0.5162 C.3       1 <0>        -0.0473
      6 C4          3.6345   -0.6743    0.0675 C.3       1 <0>        -0.0473
      7 C5          3.1382   -3.0636    0.1207 C.3       1 <0>        -0.0527
      8 C6          4.1917   -2.0241    0.5074 C.3       1 <0>        -0.0527
      9 C7         -0.1162   -0.2246   -0.9043 C.3       1 <0>        -0.0068
     10 C8         -0.9359   -0.2314    0.3890 C.3       1 <0>         0.0018
     11 C9          1.5225    1.5975   -0.2121 C.ar      1 <0>        -0.0158
     12 C10        -2.9388    0.3565   -0.8134 C.3       1 <0>        -0.0011
     13 C11        -3.0880   -0.7276    1.3508 C.3       1 <0>        -0.0011
     14 C12        -4.3710   -0.0522   -1.1616 C.3       1 <0>        -0.0402
     15 C13        -4.5251   -1.1715    1.0735 C.3       1 <0>        -0.0402
     16 C14        -5.2171   -0.2306    0.0939 C.3       1 <0>        -0.0507
     17 C15         1.7178    1.7933    1.1375 C.ar      1 <0>        -0.0558
     18 C16         1.4550    2.6400   -1.1100 C.ar      1 <0>        -0.0558
     19 C17         1.8526    3.0977    1.6131 C.ar      1 <0>        -0.0614
     20 C18         1.5897    3.9443   -0.6343 C.ar      1 <0>        -0.0614
     21 C19         1.7885    4.1731    0.7272 C.ar      1 <0>        -0.0617
     22 H1          1.7732   -0.9361    1.1036 H         1 <0>         0.0332
     23 H2          2.1160   -2.3106   -1.6039 H         1 <0>         0.0269
     24 H3          1.0293   -2.7557   -0.2800 H         1 <0>         0.0269
     25 H4          3.9618    0.1209    0.7435 H         1 <0>         0.0269
     26 H5          4.0264   -0.4410   -0.9293 H         1 <0>         0.0269
     27 H6          3.5412   -3.8141   -0.5670 H         1 <0>         0.0265
     28 H7          2.7926   -3.5922    1.0166 H         1 <0>         0.0265
     29 H8          4.3443   -2.0382    1.5929 H         1 <0>         0.0265
     30 H9          5.1588   -2.2301    0.0376 H         1 <0>         0.0265
     31 H10        -0.5147    0.5042   -1.6187 H         1 <0>         0.0309
     32 H11        -0.2127   -1.1900   -1.4174 H         1 <0>         0.0309
     33 H12        -0.9053    0.7488    0.8783 H         1 <0>         0.0427
     34 H13        -0.5026   -0.9605    1.0825 H         1 <0>         0.0427
     35 H14        -2.4295    0.4021   -1.7786 H         1 <0>         0.0426
     36 H15        -2.9347    1.3670   -0.3843 H         1 <0>         0.0426
     37 H16        -3.0964    0.2257    1.8955 H         1 <0>         0.0426
     38 H17        -2.6222   -1.4734    2.0064 H         1 <0>         0.0426
     39 H18         1.5497   -0.5397   -2.5788 H         1 <0>         0.2106
     40 H19        -4.3588   -0.9912   -1.7298 H         1 <0>         0.0278
     41 H20        -4.8269    0.7064   -1.8080 H         1 <0>         0.0278
     42 H21        -5.0891   -1.2073    2.0124 H         1 <0>         0.0278
     43 H22        -4.5225   -2.1892    0.6629 H         1 <0>         0.0278
     44 H23        -5.3737    0.7445    0.5713 H         1 <0>         0.0266
     45 H24        -6.2053   -0.6227   -0.1706 H         1 <0>         0.0266
     46 H25         1.7500    0.9909    1.8640 H         1 <0>         0.0621
     47 H26         1.2846    2.4889   -2.1712 H         1 <0>         0.0621
     48 H27         2.0015    3.2769    2.6741 H         1 <0>         0.0618
     49 H28         1.5356    4.7822   -1.3234 H         1 <0>         0.0618
     50 H29         1.8910    5.1888    1.0978 H         1 <0>         0.0618
@<TRIPOS>BOND
     1    1    4 1
     2    1   39 1
     3    2   10 1
     4    2   12 1
     5    2   13 1
     6    3    4 1
     7    3    5 1
     8    3    6 1
     9    3   22 1
    10    4    9 1
    11    4   11 1
    12    5    7 1
    13    5   23 1
    14    5   24 1
    15    6    8 1
    16    6   25 1
    17    6   26 1
    18    7    8 1
    19    7   27 1
    20    7   28 1
    21    8   29 1
    22    8   30 1
    23    9   10 1
    24    9   31 1
    25    9   32 1
    26   10   33 1
    27   10   34 1
    28   11   17 ar
    29   11   18 ar
    30   12   14 1
    31   12   35 1
    32   12   36 1
    33   13   15 1
    34   13   37 1
    35   13   38 1
    36   14   16 1
    37   14   40 1
    38   14   41 1
    39   15   16 1
    40   15   42 1
    41   15   43 1
    42   16   44 1
    43   16   45 1
    44   17   19 ar
    45   17   46 1
    46   18   20 ar
    47   18   47 1
    48   19   21 ar
    49   19   48 1
    50   20   21 ar
    51   20   49 1
    52   21   50 1
