@<TRIPOS>MOLECULE
DB00129
   21    20     0     0     0
SMALL
USER_CHARGES

@<TRIPOS>ATOM
      1 O1         -2.1064    1.9443    0.0564 O.3       1 <0>        -0.4795
      2 O2         -2.5540    0.4607   -1.5982 O.2       1 <0>        -0.2493
      3 N1         -1.8701   -1.6749   -0.0703 N.3       1 <0>        -0.3184
      4 N2          3.1661    0.2414   -0.7869 N.3       1 <0>        -0.3300
      5 C1         -0.2078   -0.1166    0.9497 C.3       1 <0>        -0.0262
      6 C2          0.8075   -0.0898   -0.2015 C.3       1 <0>        -0.0387
      7 C3         -1.6649   -0.3545    0.5244 C.3       1 <0>         0.1033
      8 C4          2.2144    0.2111    0.3173 C.3       1 <0>        -0.0068
      9 C5         -2.1547    0.6892   -0.4637 C.2       1 <0>         0.3217
     10 H1          0.0851   -0.8930    1.6685 H         1 <0>         0.0286
     11 H2         -0.1495    0.8373    1.4899 H         1 <0>         0.0286
     12 H3          0.5217    0.6725   -0.9360 H         1 <0>         0.0278
     13 H4          0.8082   -1.0562   -0.7196 H         1 <0>         0.0278
     14 H5         -2.3090   -0.2925    1.4094 H         1 <0>         0.0574
     15 H6          2.5223   -0.5516    1.0411 H         1 <0>         0.0422
     16 H7          2.2290    1.1806    0.8267 H         1 <0>         0.0422
     17 H8         -1.3491   -1.7536   -0.9424 H         1 <0>         0.1190
     18 H9         -2.8532   -1.7971   -0.3104 H         1 <0>         0.1190
     19 H10         3.1824   -0.6656   -1.2515 H         1 <0>         0.1182
     20 H11         4.1050    0.3912   -0.4197 H         1 <0>         0.1182
     21 H12        -2.4230    2.6172   -0.5834 H         1 <0>         0.2951
@<TRIPOS>BOND
     1    1    9 1
     2    1   21 1
     3    2    9 2
     4    3    7 1
     5    3   17 1
     6    3   18 1
     7    4    8 1
     8    4   19 1
     9    4   20 1
    10    5    6 1
    11    5    7 1
    12    5   10 1
    13    5   11 1
    14    6    8 1
    15    6   12 1
    16    6   13 1
    17    7    9 1
    18    7   14 1
    19    8   15 1
    20    8   16 1
