@<TRIPOS>MOLECULE
DB00699
   57    61     0     0     0
SMALL
USER_CHARGES

@<TRIPOS>ATOM
      1 Br1         4.9008    3.6342   -2.0042 Br        1 <0>        -0.0487
      2 O1         -0.6528   -0.2275   -1.7240 O.3       1 <0>        -0.3704
      3 O2          3.4177   -0.8623    0.3086 O.3       1 <0>        -0.4608
      4 O3          5.1037   -1.6884    1.6408 O.2       1 <0>        -0.2449
      5 N1         -0.9612   -2.8628   -0.4916 N.3       1 <0>        -0.2987
      6 N2         -5.0776    1.4601    0.2963 N.pl3     1 <0>        -0.3494
      7 N3          7.4610    1.5997    0.5410 N.ar      1 <0>        -0.2614
      8 C1         -0.8206   -0.3462   -0.3034 C.3       1 <0>         0.1107
      9 C2         -1.6882   -1.6546   -0.0248 C.3       1 <0>         0.0473
     10 C3          0.5664   -0.4849    0.3451 C.3       1 <0>        -0.0110
     11 C4          1.2508   -1.7901   -0.0768 C.3       1 <0>         0.0090
     12 C5         -3.1399   -1.5529   -0.6397 C.3       1 <0>        -0.0070
     13 C6         -1.5732    0.8957    0.1514 C.2       1 <0>        -0.0050
     14 C7          0.3380   -2.9916    0.1923 C.3       1 <0>         0.0050
     15 C8         -2.9730    0.8352    0.1137 C.2       1 <0>         0.0090
     16 C9         -3.7794   -0.2636   -0.2468 C.2       1 <0>        -0.0202
     17 C10         2.5854   -1.9538    0.6509 C.3       1 <0>         0.0969
     18 C11        -3.7821    1.9024    0.4554 C.2       1 <0>         0.0494
     19 C12        -1.7247   -4.0991   -0.2982 C.3       1 <0>        -0.0123
     20 C13        -1.0209    2.1231    0.5415 C.2       1 <0>        -0.0551
     21 C14        -5.0864    0.1478   -0.1310 C.2       1 <0>         0.0086
     22 C15        -3.2420    3.1223    0.8598 C.2       1 <0>        -0.0376
     23 C16        -1.8409    3.2075    0.8931 C.2       1 <0>        -0.0594
     24 C17         0.0834    0.9368   -2.0540 C.3       1 <0>         0.0377
     25 C18        -6.2675    2.2462    0.5390 C.3       1 <0>         0.0119
     26 C19         4.6597   -0.8477    0.8743 C.2       1 <0>         0.3407
     27 C20         5.4298    0.3443    0.4380 C.ar      1 <0>         0.0781
     28 C21         4.8626    1.2481   -0.4278 C.ar      1 <0>        -0.0308
     29 C22         6.7044    0.5380    0.8991 C.ar      1 <0>         0.0416
     30 C23         5.6099    2.3534   -0.8191 C.ar      1 <0>         0.0367
     31 C24         6.8925    2.4820   -0.3111 C.ar      1 <0>         0.0415
     32 H1         -1.8200   -1.7310    1.0672 H         1 <0>         0.0497
     33 H2          0.4278   -0.5081    1.4369 H         1 <0>         0.0301
     34 H3          1.2339    0.3629    0.1807 H         1 <0>         0.0301
     35 H4          1.4607   -1.7318   -1.1538 H         1 <0>         0.0347
     36 H5         -3.7679   -2.3745   -0.2772 H         1 <0>         0.0330
     37 H6         -3.0928   -1.6160   -1.7335 H         1 <0>         0.0330
     38 H7          0.8514   -3.8910   -0.1719 H         1 <0>         0.0430
     39 H8          0.1920   -3.1222    1.2735 H         1 <0>         0.0430
     40 H9          3.0670   -2.8890    0.3409 H         1 <0>         0.0701
     41 H10         2.4323   -1.9781    1.7368 H         1 <0>         0.0701
     42 H11        -1.1273   -4.9736   -0.5822 H         1 <0>         0.0391
     43 H12        -2.6052   -4.1280   -0.9474 H         1 <0>         0.0391
     44 H13        -2.0441   -4.2279    0.7419 H         1 <0>         0.0391
     45 H14         0.0560    2.2618    0.5840 H         1 <0>         0.0621
     46 H15        -6.0166   -0.3752   -0.3079 H         1 <0>         0.0812
     47 H16        -3.8633    3.9682    1.1312 H         1 <0>         0.0638
     48 H17        -1.3772    4.1435    1.1969 H         1 <0>         0.0618
     49 H18        -0.4962    1.8562   -1.9443 H         1 <0>         0.0524
     50 H19         0.2727    0.8672   -3.1324 H         1 <0>         0.0524
     51 H20         1.0754    1.0161   -1.6108 H         1 <0>         0.0524
     52 H21        -6.2673    2.5561    1.5870 H         1 <0>         0.0456
     53 H22        -6.2462    3.1162   -0.1222 H         1 <0>         0.0456
     54 H23        -7.1550    1.6435    0.3304 H         1 <0>         0.0456
     55 H24         3.8555    1.1316   -0.8168 H         1 <0>         0.0638
     56 H25         7.1910   -0.1494    1.5827 H         1 <0>         0.0838
     57 H26         7.5277    3.3215   -0.5774 H         1 <0>         0.0841
@<TRIPOS>BOND
     1    1   30 1
     2    2    8 1
     3    2   24 1
     4    3   17 1
     5    3   26 1
     6    4   26 2
     7    5    9 1
     8    5   14 1
     9    5   19 1
    10    6   18 1
    11    6   21 2
    12    6   25 1
    13    7   29 ar
    14    7   31 ar
    15    8    9 1
    16    8   10 1
    17    8   13 1
    18    9   12 1
    19    9   32 1
    20   10   11 1
    21   10   33 1
    22   10   34 1
    23   11   14 1
    24   11   17 1
    25   11   35 1
    26   12   16 1
    27   12   36 1
    28   12   37 1
    29   13   15 1
    30   13   20 2
    31   14   38 1
    32   14   39 1
    33   15   16 2
    34   15   18 2
    35   16   21 1
    36   17   40 1
    37   17   41 1
    38   18   22 1
    39   19   42 1
    40   19   43 1
    41   19   44 1
    42   20   23 1
    43   20   45 1
    44   21   46 1
    45   22   23 2
    46   22   47 1
    47   23   48 1
    48   24   49 1
    49   24   50 1
    50   24   51 1
    51   25   52 1
    52   25   53 1
    53   25   54 1
    54   26   27 1
    55   27   28 ar
    56   27   29 ar
    57   28   30 ar
    58   28   55 1
    59   29   56 1
    60   30   31 ar
    61   31   57 1
