@<TRIPOS>MOLECULE
DB00519
   65    67     0     0     0
SMALL
USER_CHARGES

@<TRIPOS>ATOM
      1 O1          1.6117    2.5368    0.5916 O.2       1 <0>        -0.2739
      2 O2          1.5067   -2.9300   -0.7451 O.3       1 <0>        -0.4793
      3 O3          1.2912   -1.5594    1.0635 O.2       1 <0>        -0.2489
      4 O4         -4.4753    2.1677   -0.0656 O.3       1 <0>        -0.4638
      5 O5         -2.9522    2.8335    1.5313 O.2       1 <0>        -0.2491
      6 N1          2.4353    0.5249   -0.2160 N.am      1 <0>        -0.2834
      7 N2         -0.8908    1.8410    0.1025 N.3       1 <0>        -0.2937
      8 C1          4.5089   -0.5778   -0.1758 C.3       1 <0>        -0.0201
      9 C2          3.8507    0.7894    0.0276 C.3       1 <0>         0.0298
     10 C3          3.7170   -1.1410   -1.3472 C.3       1 <0>        -0.0194
     11 C4          2.2844   -0.7249   -0.9769 C.3       1 <0>         0.1234
     12 C5          6.0116   -0.4218   -0.3156 C.3       1 <0>        -0.0485
     13 C6          4.2870    1.3380    1.3821 C.3       1 <0>        -0.0340
     14 C7          6.5615    0.2028    0.9756 C.3       1 <0>        -0.0527
     15 C8          5.8186    1.4807    1.3969 C.3       1 <0>        -0.0514
     16 C9          1.4574    1.4975   -0.0525 C.2       1 <0>         0.2333
     17 C10         1.6432   -1.7507   -0.0911 C.2       1 <0>         0.3255
     18 C11         0.1336    1.2258   -0.7234 C.3       1 <0>         0.0827
     19 C12         0.1324    1.8114   -2.1208 C.3       1 <0>        -0.0411
     20 C13        -2.2188    1.6239   -0.4590 C.3       1 <0>         0.1067
     21 C14        -2.5420    0.1269   -0.5918 C.3       1 <0>        -0.0232
     22 C15        -3.2231    2.2823    0.4724 C.2       1 <0>         0.3243
     23 C16        -2.5529   -0.6610    0.7258 C.3       1 <0>        -0.0258
     24 C17        -2.9337   -2.1110    0.5637 C.ar      1 <0>        -0.0473
     25 C18        -5.5328    2.7527    0.7008 C.3       1 <0>         0.0897
     26 C19        -1.9438   -3.0532    0.3284 C.ar      1 <0>        -0.0586
     27 C20        -4.2682   -2.4785    0.6520 C.ar      1 <0>        -0.0586
     28 C21        -2.2964   -4.3944    0.1781 C.ar      1 <0>        -0.0615
     29 C22        -4.6206   -3.8197    0.5019 C.ar      1 <0>        -0.0615
     30 C23        -6.8438    2.5414   -0.0260 C.3       1 <0>        -0.0306
     31 C24        -3.6349   -4.7775    0.2649 C.ar      1 <0>        -0.0617
     32 H1          4.3117   -1.2214    0.6955 H         1 <0>         0.0319
     33 H2          4.1601    1.4935   -0.7583 H         1 <0>         0.0503
     34 H3          4.0205   -0.6514   -2.2808 H         1 <0>         0.0292
     35 H4          3.8599   -2.2192   -1.4640 H         1 <0>         0.0292
     36 H5          1.6721   -0.5817   -1.8707 H         1 <0>         0.0617
     37 H6          6.4844   -1.3947   -0.4894 H         1 <0>         0.0269
     38 H7          6.2571    0.2179   -1.1716 H         1 <0>         0.0269
     39 H8          3.8411    2.3172    1.5804 H         1 <0>         0.0283
     40 H9          3.9622    0.6717    2.1906 H         1 <0>         0.0283
     41 H10         6.4806   -0.5321    1.7868 H         1 <0>         0.0265
     42 H11         7.6285    0.4208    0.8537 H         1 <0>         0.0265
     43 H12         6.1487    1.7831    2.3974 H         1 <0>         0.0266
     44 H13         6.1028    2.2909    0.7134 H         1 <0>         0.0266
     45 H14        -0.0193    0.1502   -0.7566 H         1 <0>         0.0554
     46 H15        -0.7201    2.8449    0.1728 H         1 <0>         0.1234
     47 H16         0.0873    2.9071   -2.1045 H         1 <0>         0.0249
     48 H17        -0.7012    1.4421   -2.7266 H         1 <0>         0.0249
     49 H18         1.0513    1.5526   -2.6596 H         1 <0>         0.0249
     50 H19         1.1229   -3.6285   -0.1736 H         1 <0>         0.2951
     51 H20        -2.3283    2.1329   -1.4236 H         1 <0>         0.0576
     52 H21        -1.8954   -0.3673   -1.3259 H         1 <0>         0.0289
     53 H22        -3.5436    0.0358   -1.0368 H         1 <0>         0.0289
     54 H23        -1.5670   -0.6075    1.2047 H         1 <0>         0.0314
     55 H24        -3.2452   -0.1992    1.4410 H         1 <0>         0.0314
     56 H25        -0.9063   -2.7621    0.2602 H         1 <0>         0.0620
     57 H26        -5.0433   -1.7394    0.8338 H         1 <0>         0.0620
     58 H27        -5.3455    3.8253    0.8225 H         1 <0>         0.0694
     59 H28        -5.5752    2.2762    1.6865 H         1 <0>         0.0694
     60 H29        -1.5286   -5.1399   -0.0067 H         1 <0>         0.0618
     61 H30        -5.6628   -4.1181    0.5689 H         1 <0>         0.0618
     62 H31        -7.6762    2.9767    0.5337 H         1 <0>         0.0262
     63 H32        -6.8103    2.9966   -1.0215 H         1 <0>         0.0262
     64 H33        -7.0355    1.4731   -0.1715 H         1 <0>         0.0262
     65 H34        -3.9094   -5.8219    0.1477 H         1 <0>         0.0618
@<TRIPOS>BOND
     1    1   16 2
     2    2   17 1
     3    2   50 1
     4    3   17 2
     5    4   22 1
     6    4   25 1
     7    5   22 2
     8    6    9 1
     9    6   11 1
    10    6   16 am
    11    7   18 1
    12    7   20 1
    13    7   46 1
    14    8    9 1
    15    8   10 1
    16    8   12 1
    17    8   32 1
    18    9   13 1
    19    9   33 1
    20   10   11 1
    21   10   34 1
    22   10   35 1
    23   11   17 1
    24   11   36 1
    25   12   14 1
    26   12   37 1
    27   12   38 1
    28   13   15 1
    29   13   39 1
    30   13   40 1
    31   14   15 1
    32   14   41 1
    33   14   42 1
    34   15   43 1
    35   15   44 1
    36   16   18 1
    37   18   19 1
    38   18   45 1
    39   19   47 1
    40   19   48 1
    41   19   49 1
    42   20   21 1
    43   20   22 1
    44   20   51 1
    45   21   23 1
    46   21   52 1
    47   21   53 1
    48   23   24 1
    49   23   54 1
    50   23   55 1
    51   24   26 ar
    52   24   27 ar
    53   25   30 1
    54   25   58 1
    55   25   59 1
    56   26   28 ar
    57   26   56 1
    58   27   29 ar
    59   27   57 1
    60   28   31 ar
    61   28   60 1
    62   29   31 ar
    63   29   61 1
    64   30   62 1
    65   30   63 1
    66   30   64 1
    67   31   65 1
