@<TRIPOS>MOLECULE
DB00768
   48    50     0     0     0
SMALL
USER_CHARGES

@<TRIPOS>ATOM
      1 O1         -2.2842    1.0299   -2.0229 O.3       1 <0>        -0.4867
      2 O2          4.0527    3.7863    1.4601 O.3       1 <0>        -0.4804
      3 O3          3.4394    2.3409   -0.1797 O.2       1 <0>        -0.2507
      4 N1          3.1284   -2.1593   -0.7253 N.3       1 <0>        -0.3081
      5 C1         -1.3460   -0.4033    0.2130 C.2       1 <0>        -0.0108
      6 C2         -0.8222    0.9402   -0.1219 C.ar      1 <0>         0.0244
      7 C3         -2.7945   -0.7203    0.3743 C.ar      1 <0>        -0.0111
      8 C4         -3.7996   -0.0522   -0.3608 C.ar      1 <0>        -0.0027
      9 C5         -1.3117    1.6094   -1.2490 C.ar      1 <0>         0.1287
     10 C6          1.0340   -1.1846    0.0936 C.3       1 <0>        -0.0211
     11 C7         -0.4379   -1.3991    0.2456 C.2       1 <0>        -0.0744
     12 C8         -3.5427    1.0768   -1.3410 C.3       1 <0>         0.1152
     13 C9          1.6975   -2.3927   -0.5665 C.3       1 <0>         0.0018
     14 C10         0.1703    1.5630    0.6480 C.ar      1 <0>        -0.0468
     15 C11         0.6740    2.8118    0.2747 C.ar      1 <0>        -0.0360
     16 C12        -3.1907   -1.6858    1.3250 C.ar      1 <0>        -0.0537
     17 C13        -0.7953    2.8449   -1.6410 C.ar      1 <0>        -0.0190
     18 C14        -5.1520   -0.3830   -0.1331 C.ar      1 <0>        -0.0548
     19 C15         0.1968    3.4479   -0.8713 C.ar      1 <0>        -0.0546
     20 C16         1.7153    3.4773    1.1114 C.3       1 <0>         0.0699
     21 C17        -4.5338   -2.0064    1.5258 C.ar      1 <0>        -0.0612
     22 C18        -5.5158   -1.3571    0.7931 C.ar      1 <0>        -0.0614
     23 C19         3.7649   -3.2967   -1.3917 C.3       1 <0>        -0.0130
     24 C20         3.7578   -1.9145    0.5735 C.3       1 <0>        -0.0130
     25 C21         3.1337    3.1244    0.7089 C.2       1 <0>         0.3091
     26 H1          1.4264   -1.0375    1.1051 H         1 <0>         0.0320
     27 H2          1.2916   -0.3224   -0.5277 H         1 <0>         0.0320
     28 H3         -0.7492   -2.4240    0.4346 H         1 <0>         0.0579
     29 H4         -4.2972    1.0282   -2.1359 H         1 <0>         0.0748
     30 H5         -3.6868    2.0427   -0.8356 H         1 <0>         0.0748
     31 H6          1.5090   -3.2999    0.0240 H         1 <0>         0.0429
     32 H7          1.2415   -2.5508   -1.5529 H         1 <0>         0.0429
     33 H8          0.5384    1.0945    1.5583 H         1 <0>         0.0628
     34 H9         -2.4556   -2.1988    1.9422 H         1 <0>         0.0624
     35 H10        -1.1684    3.3432   -2.5311 H         1 <0>         0.0654
     36 H11        -5.9388    0.1324   -0.6806 H         1 <0>         0.0622
     37 H12         0.5879    4.4162   -1.1725 H         1 <0>         0.0622
     38 H13         1.5809    3.2004    2.1640 H         1 <0>         0.0426
     39 H14         1.6029    4.5665    1.0466 H         1 <0>         0.0426
     40 H15        -4.8087   -2.7561    2.2618 H         1 <0>         0.0618
     41 H16        -6.5633   -1.5959    0.9501 H         1 <0>         0.0618
     42 H17         3.3153   -3.4669   -2.3765 H         1 <0>         0.0391
     43 H18         3.6772   -4.2202   -0.8078 H         1 <0>         0.0391
     44 H19         4.8282   -3.0968   -1.5651 H         1 <0>         0.0391
     45 H20         4.8501   -1.9038    0.4711 H         1 <0>         0.0391
     46 H21         3.5034   -2.6804    1.3154 H         1 <0>         0.0391
     47 H22         3.5065   -0.9257    0.9695 H         1 <0>         0.0391
     48 H23         4.9704    3.5572    1.1999 H         1 <0>         0.2951
@<TRIPOS>BOND
     1    1    9 1
     2    1   12 1
     3    2   25 1
     4    2   48 1
     5    3   25 2
     6    4   13 1
     7    4   23 1
     8    4   24 1
     9    5    6 1
    10    5    7 1
    11    5   11 2
    12    6    9 ar
    13    6   14 ar
    14    7    8 ar
    15    7   16 ar
    16    8   12 1
    17    8   18 ar
    18    9   17 ar
    19   10   11 1
    20   10   13 1
    21   10   26 1
    22   10   27 1
    23   11   28 1
    24   12   29 1
    25   12   30 1
    26   13   31 1
    27   13   32 1
    28   14   15 ar
    29   14   33 1
    30   15   19 ar
    31   15   20 1
    32   16   21 ar
    33   16   34 1
    34   17   19 ar
    35   17   35 1
    36   18   22 ar
    37   18   36 1
    38   19   37 1
    39   20   25 1
    40   20   38 1
    41   20   39 1
    42   21   22 ar
    43   21   40 1
    44   22   41 1
    45   23   42 1
    46   23   43 1
    47   23   44 1
    48   24   45 1
    49   24   46 1
    50   24   47 1
