@<TRIPOS>MOLECULE
DB00158
   51    53     0     0     0
SMALL
USER_CHARGES

@<TRIPOS>ATOM
      1 O1          7.5078   -2.1163    1.3552 O.3       1 <0>        -0.4793
      2 O2          3.9025   -1.5292   -2.1183 O.2       1 <0>        -0.2702
      3 O3          5.4932   -1.8360    2.3613 O.2       1 <0>        -0.2489
      4 O4          7.0142    3.5568    0.9753 O.3       1 <0>        -0.4806
      5 O5          7.7790    2.6198   -0.9442 O.2       1 <0>        -0.2510
      6 O6         -6.9281   -2.5926   -0.5851 O.2       1 <0>        -0.2633
      7 N1          4.3381   -0.9785    0.0920 N.am      1 <0>        -0.2983
      8 N2         -2.0225   -0.1802   -0.1864 N.pl3     1 <0>        -0.3382
      9 N3         -5.1329   -0.6184   -0.6932 N.ar      1 <0>        -0.2400
     10 N4         -8.0802    1.0031    0.7287 N.pl3     1 <0>        -0.3109
     11 N5         -5.9167    1.9166    0.2251 N.ar      1 <0>        -0.2339
     12 N6         -8.5915   -1.2869    0.3161 N.2       1 <0>        -0.1756
     13 N7        -10.1666    0.1899    1.2318 N.pl3     1 <0>        -0.3289
     14 C1          5.7658   -1.1666    0.0357 C.3       1 <0>         0.1209
     15 C2          6.5140    0.1030   -0.3885 C.3       1 <0>        -0.0140
     16 C3          6.3762    1.3061    0.5532 C.3       1 <0>         0.0470
     17 C4          3.5143   -1.1788   -1.0069 C.2       1 <0>         0.2447
     18 C5          2.0677   -0.9173   -0.7925 C.ar      1 <0>         0.0368
     19 C6          6.2087   -1.7187    1.3750 C.2       1 <0>         0.3253
     20 C7         -0.6488   -0.4268   -0.3899 C.ar      1 <0>         0.0275
     21 C8         -2.9061    0.2106   -1.2409 C.3       1 <0>         0.0530
     22 C9          1.2610   -0.5375   -1.8653 C.ar      1 <0>        -0.0479
     23 C10         1.5161   -1.0519    0.4815 C.ar      1 <0>        -0.0479
     24 C11        -0.0973   -0.2923   -1.6641 C.ar      1 <0>        -0.0401
     25 C12         0.1577   -0.8067    0.6828 C.ar      1 <0>        -0.0401
     26 C13        -4.2948    0.4343   -0.7096 C.ar      1 <0>         0.0773
     27 C14         7.1225    2.5365    0.0843 C.2       1 <0>         0.3048
     28 C15        -6.3661   -0.3692   -0.2081 C.ar      1 <0>         0.1725
     29 C16        -6.7734    0.8732    0.2498 C.ar      1 <0>         0.1644
     30 C17        -4.6793    1.6780   -0.2589 C.ar      1 <0>         0.0528
     31 C18        -7.3162   -1.5032   -0.1748 C.2       1 <0>         0.3021
     32 C19        -8.9185   -0.0902    0.7342 C.cat     1 <0>         0.1953
     33 H1          5.9622   -1.9517   -0.7057 H         1 <0>         0.0614
     34 H2          6.1691    0.4013   -1.3874 H         1 <0>         0.0294
     35 H3          7.5814   -0.1307   -0.4966 H         1 <0>         0.0294
     36 H4          5.3197    1.5795    0.6499 H         1 <0>         0.0378
     37 H5          6.7635    1.0420    1.5435 H         1 <0>         0.0378
     38 H6          3.9567   -0.6096    0.9570 H         1 <0>         0.1498
     39 H7         -2.9564   -0.5698   -2.0107 H         1 <0>         0.0527
     40 H8         -2.5626    1.1315   -1.7288 H         1 <0>         0.0527
     41 H9          1.6735   -0.4237   -2.8645 H         1 <0>         0.0626
     42 H10         2.1012   -1.3757    1.3371 H         1 <0>         0.0626
     43 H11        -2.3787   -0.2987    0.7560 H         1 <0>         0.1465
     44 H12        -0.6885   -0.0001   -2.5267 H         1 <0>         0.0636
     45 H13        -0.2619   -0.9218    1.6789 H         1 <0>         0.0636
     46 H14        -4.0109    2.5312   -0.2663 H         1 <0>         0.0849
     47 H15         7.7892   -2.4887    2.2180 H         1 <0>         0.2951
     48 H16        -8.3766    1.9114    1.0627 H         1 <0>         0.1701
     49 H17         7.5112    4.3506    0.6839 H         1 <0>         0.2951
     50 H18       -10.4116    1.1199    1.5532 H         1 <0>         0.1451
     51 H19       -10.8808   -0.5277    1.2912 H         1 <0>         0.1451
@<TRIPOS>BOND
     1    1   19 1
     2    1   47 1
     3    2   17 2
     4    3   19 2
     5    4   27 1
     6    4   49 1
     7    5   27 2
     8    6   31 2
     9    7   14 1
    10    7   17 am
    11    7   38 1
    12    8   20 1
    13    8   21 1
    14    8   43 1
    15    9   26 ar
    16    9   28 ar
    17   10   29 1
    18   10   32 2
    19   10   48 1
    20   11   29 ar
    21   11   30 ar
    22   12   31 1
    23   12   32 1
    24   13   32 1
    25   13   50 1
    26   13   51 1
    27   14   15 1
    28   14   19 1
    29   14   33 1
    30   15   16 1
    31   15   34 1
    32   15   35 1
    33   16   27 1
    34   16   36 1
    35   16   37 1
    36   17   18 1
    37   18   22 ar
    38   18   23 ar
    39   20   24 ar
    40   20   25 ar
    41   21   26 1
    42   21   39 1
    43   21   40 1
    44   22   24 ar
    45   22   41 1
    46   23   25 ar
    47   23   42 1
    48   24   44 1
    49   25   45 1
    50   26   30 ar
    51   28   29 ar
    52   28   31 1
    53   30   46 1
