@<TRIPOS>MOLECULE
DB00973
   51    54     0     0     0
SMALL
USER_CHARGES

@<TRIPOS>ATOM
      1 F1         -7.2065   -1.7379    1.9734 F         1 <0>        -0.2055
      2 F2          7.7200    1.4531    0.9732 F         1 <0>        -0.2055
      3 O1         -2.0730   -2.6039   -2.2300 O.2       1 <0>        -0.2749
      4 O2          2.8265   -2.3696    1.1429 O.3       1 <0>        -0.3872
      5 O3         -1.9855    5.4946   -0.7098 O.3       1 <0>        -0.5068
      6 N1         -2.3537   -0.9724   -0.5532 N.am      1 <0>        -0.2630
      7 C1         -0.4284   -0.9026   -1.2764 C.3       1 <0>         0.0592
      8 C2         -1.2155   -0.1321   -0.2060 C.3       1 <0>         0.0671
      9 C3          0.7369   -1.7680   -0.8112 C.3       1 <0>        -0.0372
     10 C4         -1.7244   -1.6890   -1.5192 C.2       1 <0>         0.2255
     11 C5         -1.4228    1.3839   -0.3418 C.ar      1 <0>        -0.0257
     12 C6          1.9733   -0.9008   -0.5705 C.3       1 <0>        -0.0219
     13 C7         -3.5644   -1.1628    0.0763 C.ar      1 <0>         0.0371
     14 C8          3.1849   -1.6995   -0.0671 C.3       1 <0>         0.0802
     15 C9         -1.1566    2.2384    0.7375 C.ar      1 <0>        -0.0533
     16 C10        -1.8814    1.9346   -1.5471 C.ar      1 <0>        -0.0533
     17 C11        -4.3788   -2.2566   -0.2563 C.ar      1 <0>        -0.0375
     18 C12        -4.0057   -0.2674    1.0630 C.ar      1 <0>        -0.0375
     19 C13         4.4042   -0.8521    0.2126 C.ar      1 <0>        -0.0190
     20 C14        -1.3450    3.6150    0.6142 C.ar      1 <0>        -0.0199
     21 C15        -2.0698    3.3112   -1.6703 C.ar      1 <0>        -0.0199
     22 C16        -1.8016    4.1514   -0.5896 C.ar      1 <0>         0.1169
     23 C17        -5.6040   -2.4501    0.3819 C.ar      1 <0>        -0.0247
     24 C18        -5.2308   -0.4608    1.7013 C.ar      1 <0>        -0.0247
     25 C19         5.3211   -0.6285   -0.8011 C.ar      1 <0>        -0.0534
     26 C20         4.5807   -0.3155    1.4772 C.ar      1 <0>        -0.0534
     27 C21        -6.0300   -1.5520    1.3606 C.ar      1 <0>         0.1235
     28 C22         6.4464    0.1539   -0.5429 C.ar      1 <0>        -0.0261
     29 C23         5.7063    0.4669    1.7354 C.ar      1 <0>        -0.0261
     30 C24         6.6391    0.7015    0.7254 C.ar      1 <0>         0.1234
     31 H1         -0.1588   -0.3171   -2.1661 H         1 <0>         0.0416
     32 H2         -0.8700   -0.4010    0.8055 H         1 <0>         0.0561
     33 H3          0.9702   -2.5135   -1.5813 H         1 <0>         0.0274
     34 H4          0.4667   -2.3198    0.0969 H         1 <0>         0.0274
     35 H5          2.2378   -0.3685   -1.4930 H         1 <0>         0.0294
     36 H6          1.7177   -0.1295    0.1684 H         1 <0>         0.0294
     37 H7          3.4354   -2.4805   -0.7956 H         1 <0>         0.0643
     38 H8         -0.8000    1.8345    1.6816 H         1 <0>         0.0622
     39 H9         -2.0991    1.2979   -2.4005 H         1 <0>         0.0622
     40 H10        -4.0889   -2.9840   -1.0072 H         1 <0>         0.0637
     41 H11        -3.4112    0.5869    1.3662 H         1 <0>         0.0637
     42 H12        -1.1325    4.2587    1.4636 H         1 <0>         0.0654
     43 H13        -2.4264    3.7232   -2.6104 H         1 <0>         0.0654
     44 H14         3.5698   -2.9436    1.3966 H         1 <0>         0.2102
     45 H15        -6.2265   -3.3000    0.1182 H         1 <0>         0.0647
     46 H16        -5.5621    0.2364    2.4652 H         1 <0>         0.0647
     47 H17         5.1780   -1.0494   -1.7921 H         1 <0>         0.0622
     48 H18         3.8622   -0.4686    2.2769 H         1 <0>         0.0622
     49 H19         7.1727    0.3374   -1.3291 H         1 <0>         0.0646
     50 H20         5.8551    0.8967    2.7216 H         1 <0>         0.0646
     51 H21        -1.7520    5.9211    0.1326 H         1 <0>         0.2921
@<TRIPOS>BOND
     1    1   27 1
     2    2   30 1
     3    3   10 2
     4    4   14 1
     5    4   44 1
     6    5   22 1
     7    5   51 1
     8    6    8 1
     9    6   10 am
    10    6   13 1
    11    7    8 1
    12    7    9 1
    13    7   10 1
    14    7   31 1
    15    8   11 1
    16    8   32 1
    17    9   12 1
    18    9   33 1
    19    9   34 1
    20   11   15 ar
    21   11   16 ar
    22   12   14 1
    23   12   35 1
    24   12   36 1
    25   13   17 ar
    26   13   18 ar
    27   14   19 1
    28   14   37 1
    29   15   20 ar
    30   15   38 1
    31   16   21 ar
    32   16   39 1
    33   17   23 ar
    34   17   40 1
    35   18   24 ar
    36   18   41 1
    37   19   25 ar
    38   19   26 ar
    39   20   22 ar
    40   20   42 1
    41   21   22 ar
    42   21   43 1
    43   23   27 ar
    44   23   45 1
    45   24   27 ar
    46   24   46 1
    47   25   28 ar
    48   25   47 1
    49   26   29 ar
    50   26   48 1
    51   28   30 ar
    52   28   49 1
    53   29   30 ar
    54   29   50 1
