@<TRIPOS>MOLECULE
DB00706
   56    57     0     0     0
SMALL
USER_CHARGES

@<TRIPOS>ATOM
      1 S1         -5.8728    2.2626    0.2819 S.o2      1 <0>         0.0594
      2 O1          3.5457    1.5720    0.6567 O.3       1 <0>        -0.4870
      3 O2         -6.7287   -0.5725   -0.2706 O.3       1 <0>        -0.4932
      4 O3         -5.2291    3.5054   -0.1162 O.2       1 <0>        -0.1531
      5 O4         -7.2390    1.9864   -0.1363 O.2       1 <0>        -0.1531
      6 O5          4.3036   -1.0875    0.9767 O.3       1 <0>        -0.4886
      7 N1          1.0580    0.3925   -0.0456 N.3       1 <0>        -0.3100
      8 N2         -5.7752    2.1080    1.9802 N.pl3     1 <0>        -0.2034
      9 C1         -0.3498    0.0997    0.2397 C.3       1 <0>         0.0089
     10 C2         -1.1920    0.3389   -1.0267 C.3       1 <0>        -0.0124
     11 C3         -2.6693    0.1022   -0.8240 C.ar      1 <0>        -0.0438
     12 C4         -0.4486   -1.3395    0.7457 C.3       1 <0>        -0.0494
     13 C5          1.2852    1.8276   -0.0822 C.3       1 <0>         0.0304
     14 C6         -3.4944    1.1505   -0.4168 C.ar      1 <0>        -0.0285
     15 C7         -4.8593    0.9318   -0.2294 C.ar      1 <0>         0.1466
     16 C8         -3.2091   -1.1652   -1.0435 C.ar      1 <0>        -0.0550
     17 C9          2.7453    2.1326   -0.3758 C.3       1 <0>         0.1022
     18 C10        -5.3989   -0.3357   -0.4488 C.ar      1 <0>         0.1463
     19 C11        -4.5737   -1.3841   -0.8558 C.ar      1 <0>        -0.0177
     20 C12         4.8037    1.1561    0.3065 C.ar      1 <0>         0.1620
     21 C13         5.1803   -0.1772    0.4686 C.ar      1 <0>         0.1619
     22 C14         5.7102    2.0782   -0.2163 C.ar      1 <0>        -0.0163
     23 C15        -7.1896   -1.8990   -0.5187 C.3       1 <0>         0.0789
     24 C16         6.4636   -0.5883    0.1084 C.ar      1 <0>        -0.0163
     25 C17         6.9934    1.6671   -0.5767 C.ar      1 <0>        -0.0581
     26 C18         7.3703    0.3339   -0.4143 C.ar      1 <0>        -0.0581
     27 C19         4.4429   -2.4372    0.5369 C.3       1 <0>         0.0870
     28 C20         3.0869   -3.1094    0.5714 C.3       1 <0>        -0.0307
     29 H1         -0.7099    0.7438    1.0535 H         1 <0>         0.0461
     30 H2         -0.8374   -0.3078   -1.8417 H         1 <0>         0.0328
     31 H3         -1.0755    1.3613   -1.4041 H         1 <0>         0.0328
     32 H4          1.6532   -0.0156    0.6753 H         1 <0>         0.1223
     33 H5          0.2309   -1.5077    1.5897 H         1 <0>         0.0245
     34 H6         -1.4542   -1.5678    1.1118 H         1 <0>         0.0245
     35 H7         -0.1941   -2.0616   -0.0380 H         1 <0>         0.0245
     36 H8          1.0244    2.2667    0.8888 H         1 <0>         0.0457
     37 H9          0.6859    2.3223   -0.8514 H         1 <0>         0.0457
     38 H10        -3.0599    2.1309   -0.2392 H         1 <0>         0.0641
     39 H11        -2.5781   -1.9896   -1.3652 H         1 <0>         0.0621
     40 H12         3.0206    1.7279   -1.3592 H         1 <0>         0.0709
     41 H13         2.8998    3.2175   -0.3920 H         1 <0>         0.0709
     42 H14        -4.9198   -2.3940   -1.0464 H         1 <0>         0.0655
     43 H15        -6.6111    1.7784    2.4780 H         1 <0>         0.1442
     44 H16        -5.2383    2.8176    2.4937 H         1 <0>         0.1442
     45 H17         5.4336    3.1217   -0.3406 H         1 <0>         0.0655
     46 H18        -7.0521   -2.1856   -1.5670 H         1 <0>         0.0660
     47 H19        -6.7419   -2.6191    0.1747 H         1 <0>         0.0660
     48 H20        -8.2680   -1.9051   -0.3282 H         1 <0>         0.0660
     49 H21         6.8088   -1.6088    0.2448 H         1 <0>         0.0655
     50 H22         7.7006    2.3857   -0.9807 H         1 <0>         0.0619
     51 H23         8.3721    0.0162   -0.6884 H         1 <0>         0.0619
     52 H24         5.1327   -2.9637    1.2058 H         1 <0>         0.0694
     53 H25         4.8119   -2.4965   -0.4947 H         1 <0>         0.0694
     54 H26         3.1617   -4.1582    0.2709 H         1 <0>         0.0262
     55 H27         2.3897   -2.6001   -0.1015 H         1 <0>         0.0262
     56 H28         2.6549   -3.0588    1.5762 H         1 <0>         0.0262
@<TRIPOS>BOND
     1    1    4 2
     2    1    5 2
     3    1    8 1
     4    1   15 1
     5    2   17 1
     6    2   20 1
     7    3   18 1
     8    3   23 1
     9    6   21 1
    10    6   27 1
    11    7    9 1
    12    7   13 1
    13    7   32 1
    14    8   43 1
    15    8   44 1
    16    9   10 1
    17    9   12 1
    18    9   29 1
    19   10   11 1
    20   10   30 1
    21   10   31 1
    22   11   14 ar
    23   11   16 ar
    24   12   33 1
    25   12   34 1
    26   12   35 1
    27   13   17 1
    28   13   36 1
    29   13   37 1
    30   14   15 ar
    31   14   38 1
    32   15   18 ar
    33   16   19 ar
    34   16   39 1
    35   17   40 1
    36   17   41 1
    37   18   19 ar
    38   19   42 1
    39   20   21 ar
    40   20   22 ar
    41   21   24 ar
    42   22   25 ar
    43   22   45 1
    44   23   46 1
    45   23   47 1
    46   23   48 1
    47   24   26 ar
    48   24   49 1
    49   25   26 ar
    50   25   50 1
    51   26   51 1
    52   27   28 1
    53   27   52 1
    54   27   53 1
    55   28   54 1
    56   28   55 1
    57   28   56 1
