@<TRIPOS>MOLECULE
DB00691
   70    72     0     0     0
SMALL
USER_CHARGES

@<TRIPOS>ATOM
      1 O1          0.4756   -4.0738    1.2056 O.2       1 <0>        -0.2739
      2 O2         -3.8984   -4.7526    0.5517 O.3       1 <0>        -0.4793
      3 O3         -6.1127    1.4804    0.2440 O.3       1 <0>        -0.4914
      4 O4         -4.4059    2.1422   -1.8465 O.3       1 <0>        -0.4914
      5 O5         -2.5352   -4.1922   -1.1871 O.2       1 <0>        -0.2489
      6 O6          5.2875   -0.0944   -0.1470 O.3       1 <0>        -0.4638
      7 O7          4.6894   -1.4941    1.5841 O.2       1 <0>        -0.2491
      8 N1         -1.0589   -2.5620    0.3135 N.am      1 <0>        -0.2821
      9 N2          2.3169   -2.0511    0.4278 N.3       1 <0>        -0.2937
     10 C1         -2.1953   -3.1903    0.9903 C.3       1 <0>         0.1271
     11 C2         -3.1507   -2.1722    1.6050 C.3       1 <0>         0.0018
     12 C3         -1.3402   -1.4604   -0.6220 C.3       1 <0>         0.0410
     13 C4         -3.4873   -1.0418    0.6716 C.ar      1 <0>        -0.0367
     14 C5         -2.6158   -0.6999   -0.3725 C.ar      1 <0>        -0.0232
     15 C6          1.2941   -2.5881   -0.4524 C.3       1 <0>         0.0827
     16 C7          0.2080   -3.1507    0.4325 C.2       1 <0>         0.2333
     17 C8          3.1537   -1.0813   -0.2690 C.3       1 <0>         0.1067
     18 C9         -4.6556   -0.2934    0.8748 C.ar      1 <0>        -0.0127
     19 C10        -2.8662   -4.0821   -0.0160 C.2       1 <0>         0.3258
     20 C11        -2.9424    0.3736   -1.2150 C.ar      1 <0>        -0.0114
     21 C12         2.4631    0.2872   -0.3838 C.3       1 <0>        -0.0232
     22 C13         1.8552   -3.6808   -1.3390 C.3       1 <0>        -0.0411
     23 C14        -4.9688    0.7720    0.0318 C.ar      1 <0>         0.1618
     24 C15        -4.1135    1.1041   -1.0146 C.ar      1 <0>         0.1618
     25 C16         2.1265    0.9655    0.9517 C.3       1 <0>        -0.0258
     26 C17         4.4435   -0.9376    0.5218 C.2       1 <0>         0.3243
     27 C18         1.5065    2.3316    0.8005 C.ar      1 <0>        -0.0473
     28 C19         2.3187    3.4647    0.7525 C.ar      1 <0>        -0.0586
     29 C20         0.1207    2.4625    0.7082 C.ar      1 <0>        -0.0586
     30 C21        -6.0250    2.6084    1.1126 C.3       1 <0>         0.0790
     31 C22        -3.4765    2.4159   -2.8933 C.3       1 <0>         0.0790
     32 C23         6.5553    0.1330    0.4767 C.3       1 <0>         0.0897
     33 C24         1.7453    4.7286    0.6125 C.ar      1 <0>        -0.0615
     34 C25        -0.4526    3.7264    0.5681 C.ar      1 <0>        -0.0615
     35 C26         0.3599    4.8594    0.5203 C.ar      1 <0>        -0.0617
     36 C27         7.3647    1.0808   -0.3826 C.3       1 <0>        -0.0306
     37 H1         -1.8220   -3.8500    1.7830 H         1 <0>         0.0620
     38 H2         -2.6731   -1.7281    2.4883 H         1 <0>         0.0337
     39 H3         -4.0706   -2.6612    1.9466 H         1 <0>         0.0337
     40 H4         -0.5395   -0.7225   -0.5242 H         1 <0>         0.0514
     41 H5         -1.3370   -1.8700   -1.6383 H         1 <0>         0.0514
     42 H6          0.9240   -1.8325   -1.1380 H         1 <0>         0.0554
     43 H7          3.4463   -1.4439   -1.2612 H         1 <0>         0.0576
     44 H8          2.8896   -2.8175    0.7825 H         1 <0>         0.1234
     45 H9         -5.3254   -0.5455    1.6940 H         1 <0>         0.0658
     46 H10        -2.2351    0.5899   -2.0096 H         1 <0>         0.0659
     47 H11         3.1172    0.9618   -0.9536 H         1 <0>         0.0289
     48 H12         1.5546    0.2113   -0.9916 H         1 <0>         0.0289
     49 H13         2.3303   -4.4799   -0.7574 H         1 <0>         0.0249
     50 H14         1.0528   -4.1494   -1.9213 H         1 <0>         0.0249
     51 H15         2.5943   -3.3030   -2.0520 H         1 <0>         0.0249
     52 H16         3.0277    1.0619    1.5700 H         1 <0>         0.0314
     53 H17         1.4427    0.3313    1.5304 H         1 <0>         0.0314
     54 H18        -4.3517   -5.3393   -0.0906 H         1 <0>         0.2951
     55 H19         3.3997    3.3752    0.8208 H         1 <0>         0.0620
     56 H20        -0.5224    1.5880    0.7462 H         1 <0>         0.0620
     57 H21        -5.7257    2.2953    2.1179 H         1 <0>         0.0660
     58 H22        -7.0127    3.0738    1.1706 H         1 <0>         0.0660
     59 H23        -5.3143    3.3428    0.7205 H         1 <0>         0.0660
     60 H24        -3.4010    1.5790   -3.5960 H         1 <0>         0.0660
     61 H25        -2.5010    2.7190   -2.4977 H         1 <0>         0.0660
     62 H26        -3.8688    3.2688   -3.4570 H         1 <0>         0.0660
     63 H27         7.0874   -0.8191    0.5804 H         1 <0>         0.0694
     64 H28         6.4000    0.5733    1.4679 H         1 <0>         0.0694
     65 H29         2.3778    5.6107    0.5744 H         1 <0>         0.0618
     66 H30        -1.5317    3.8277    0.4953 H         1 <0>         0.0618
     67 H31        -0.0867    5.8433    0.4107 H         1 <0>         0.0618
     68 H32         7.5127    0.6623   -1.3836 H         1 <0>         0.0262
     69 H33         6.8360    2.0312   -0.5104 H         1 <0>         0.0262
     70 H34         8.3422    1.2777    0.0661 H         1 <0>         0.0262
@<TRIPOS>BOND
     1    1   16 2
     2    2   19 1
     3    2   54 1
     4    3   23 1
     5    3   30 1
     6    4   24 1
     7    4   31 1
     8    5   19 2
     9    6   26 1
    10    6   32 1
    11    7   26 2
    12    8   10 1
    13    8   12 1
    14    8   16 am
    15    9   15 1
    16    9   17 1
    17    9   44 1
    18   10   11 1
    19   10   19 1
    20   10   37 1
    21   11   13 1
    22   11   38 1
    23   11   39 1
    24   12   14 1
    25   12   40 1
    26   12   41 1
    27   13   14 ar
    28   13   18 ar
    29   14   20 ar
    30   15   16 1
    31   15   22 1
    32   15   42 1
    33   17   21 1
    34   17   26 1
    35   17   43 1
    36   18   23 ar
    37   18   45 1
    38   20   24 ar
    39   20   46 1
    40   21   25 1
    41   21   47 1
    42   21   48 1
    43   22   49 1
    44   22   50 1
    45   22   51 1
    46   23   24 ar
    47   25   27 1
    48   25   52 1
    49   25   53 1
    50   27   28 ar
    51   27   29 ar
    52   28   33 ar
    53   28   55 1
    54   29   34 ar
    55   29   56 1
    56   30   57 1
    57   30   58 1
    58   30   59 1
    59   31   60 1
    60   31   61 1
    61   31   62 1
    62   32   36 1
    63   32   63 1
    64   32   64 1
    65   33   35 ar
    66   33   65 1
    67   34   35 ar
    68   34   66 1
    69   35   67 1
    70   36   68 1
    71   36   69 1
    72   36   70 1
