@<TRIPOS>MOLECULE
DB00873
   54    57     0     0     0
SMALL
USER_CHARGES

@<TRIPOS>ATOM
      1 Cl1         5.2439   -3.6322    0.7427 Cl        1 <0>        -0.0811
      2 O1          2.8724    0.5134    2.0765 O.3       1 <0>        -0.3769
      3 O2         -0.2044   -1.9916   -1.3172 O.3       1 <0>        -0.3914
      4 O3          4.2342   -1.2306    0.5682 O.3       1 <0>        -0.4466
      5 O4          5.1586    0.7187   -0.2577 O.2       1 <0>        -0.2475
      6 O5         -6.1996   -0.7668    2.1088 O.2       1 <0>        -0.2879
      7 C1          1.6907    0.1121   -0.0427 C.3       1 <0>         0.0126
      8 C2          0.6569    1.2113    0.2881 C.3       1 <0>        -0.0291
      9 C3         -0.7259    0.9614   -0.3320 C.3       1 <0>        -0.0311
     10 C4         -1.2868   -0.3975    0.2174 C.3       1 <0>         0.0007
     11 C5          2.9353    0.7123    0.6673 C.3       1 <0>         0.1677
     12 C6          1.1556   -1.2144    0.5329 C.3       1 <0>        -0.0177
     13 C7         -0.2651   -1.5646    0.0364 C.3       1 <0>         0.0600
     14 C8          1.3946    2.5044   -0.0494 C.3       1 <0>        -0.0462
     15 C9         -2.7589   -0.6811   -0.2824 C.3       1 <0>         0.0131
     16 C10         2.8559    2.2248    0.3587 C.3       1 <0>        -0.0127
     17 C11        -1.6781    2.1273   -0.0101 C.3       1 <0>        -0.0458
     18 C12         1.9757   -0.0239   -1.5643 C.3       1 <0>        -0.0561
     19 C13        -3.0987    1.8653   -0.4942 C.3       1 <0>        -0.0302
     20 C14        -3.6017    0.5544    0.0535 C.2       1 <0>        -0.0559
     21 C15         4.2417    0.0983    0.2632 C.2       1 <0>         0.3408
     22 C16        -2.8687   -0.9393   -1.8021 C.3       1 <0>        -0.0520
     23 C17        -3.3103   -1.9248    0.4000 C.2       1 <0>        -0.0701
     24 C18        -4.7011    0.5210    0.8227 C.2       1 <0>        -0.0149
     25 C19        -4.4032   -1.9644    1.1683 C.2       1 <0>        -0.0180
     26 C20        -5.1848   -0.7400    1.4208 C.2       1 <0>         0.1787
     27 C21         5.4282   -1.9432    0.2351 C.3       1 <0>         0.1659
     28 H1          0.5033    1.2280    1.3801 H         1 <0>         0.0310
     29 H2         -0.6354    0.9065   -1.4216 H         1 <0>         0.0308
     30 H3         -1.3610   -0.2643    1.3107 H         1 <0>         0.0340
     31 H4          1.1179   -1.1619    1.6279 H         1 <0>         0.0297
     32 H5          1.8371   -2.0342    0.2784 H         1 <0>         0.0297
     33 H6         -0.6045   -2.4279    0.6194 H         1 <0>         0.0596
     34 H7          0.9906    3.3625    0.4972 H         1 <0>         0.0269
     35 H8          1.3321    2.7339   -1.1192 H         1 <0>         0.0269
     36 H9          3.5127    2.5351   -0.4612 H         1 <0>         0.0299
     37 H10         3.1176    2.8286    1.2352 H         1 <0>         0.0299
     38 H11        -1.3130    3.0495   -0.4777 H         1 <0>         0.0271
     39 H12        -1.6919    2.3075    1.0731 H         1 <0>         0.0271
     40 H13         2.6030   -0.9006   -1.7630 H         1 <0>         0.0236
     41 H14         1.0711   -0.1354   -2.1646 H         1 <0>         0.0236
     42 H15         2.5055    0.8437   -1.9711 H         1 <0>         0.0236
     43 H16        -3.1285    1.8485   -1.5895 H         1 <0>         0.0310
     44 H17        -3.7384    2.7008   -0.1844 H         1 <0>         0.0310
     45 H18        -2.5049   -1.9335   -2.0837 H         1 <0>         0.0241
     46 H19        -3.9138   -0.8931   -2.1360 H         1 <0>         0.0241
     47 H20        -2.3113   -0.2078   -2.3949 H         1 <0>         0.0241
     48 H21        -2.7909   -2.8650    0.2288 H         1 <0>         0.0582
     49 H22         3.5801    1.0363    2.4907 H         1 <0>         0.2109
     50 H23         0.4048   -2.7479   -1.3632 H         1 <0>         0.2098
     51 H24        -5.2681    1.4179    1.0488 H         1 <0>         0.0655
     52 H25        -4.7473   -2.8911    1.6125 H         1 <0>         0.0653
     53 H26         6.2867   -1.5195    0.7647 H         1 <0>         0.0872
     54 H27         5.5902   -1.9267   -0.8466 H         1 <0>         0.0872
@<TRIPOS>BOND
     1    1   27 1
     2    2   11 1
     3    2   49 1
     4    3   13 1
     5    3   50 1
     6    4   21 1
     7    4   27 1
     8    5   21 2
     9    6   26 2
    10    7    8 1
    11    7   11 1
    12    7   12 1
    13    7   18 1
    14    8    9 1
    15    8   14 1
    16    8   28 1
    17    9   10 1
    18    9   17 1
    19    9   29 1
    20   10   13 1
    21   10   15 1
    22   10   30 1
    23   11   16 1
    24   11   21 1
    25   12   13 1
    26   12   31 1
    27   12   32 1
    28   13   33 1
    29   14   16 1
    30   14   34 1
    31   14   35 1
    32   15   20 1
    33   15   22 1
    34   15   23 1
    35   16   36 1
    36   16   37 1
    37   17   19 1
    38   17   38 1
    39   17   39 1
    40   18   40 1
    41   18   41 1
    42   18   42 1
    43   19   20 1
    44   19   43 1
    45   19   44 1
    46   20   24 2
    47   22   45 1
    48   22   46 1
    49   22   47 1
    50   23   25 2
    51   23   48 1
    52   24   26 1
    53   24   51 1
    54   25   26 1
    55   25   52 1
    56   27   53 1
    57   27   54 1
