@<TRIPOS>MOLECULE
DB00513
   22    21     0     0     0
SMALL
USER_CHARGES

@<TRIPOS>ATOM
      1 O1         -5.0623   -0.3134   -0.0558 O.co2     1 <0>        -0.5498
      2 O2         -3.8897    1.6436    0.0521 O.co2     1 <0>        -0.5498
      3 N1          3.5851    0.3188   -0.0423 N.4       1 <0>         0.2185
      4 C1         -0.1744   -0.5232    0.0498 C.3       1 <0>        -0.0479
      5 C2          1.1138    0.3057    0.0397 C.3       1 <0>        -0.0126
      6 C3         -1.4116    0.3790   -0.0040 C.3       1 <0>        -0.0478
      7 C4          2.3802   -0.5414    0.0160 C.3       1 <0>        -0.0354
      8 C5         -2.7111   -0.4207   -0.0305 C.3       1 <0>        -0.0132
      9 C6         -4.0116    0.3895   -0.0146 C.2       1 <0>         0.0417
     10 H1         -0.2049   -1.1440    0.9531 H         1 <0>         0.0267
     11 H2         -0.1787   -1.2019   -0.8116 H         1 <0>         0.0267
     12 H3          1.1298    0.9590    0.9214 H         1 <0>         0.0317
     13 H4          1.1084    0.9649   -0.8380 H         1 <0>         0.0317
     14 H5         -1.3627    1.0194   -0.8935 H         1 <0>         0.0269
     15 H6         -1.4089    1.0473    0.8661 H         1 <0>         0.0269
     16 H7          2.4142   -1.1888   -0.8654 H         1 <0>         0.0813
     17 H8          2.4712   -1.1534    0.9184 H         1 <0>         0.0813
     18 H9         -2.7383   -1.0920    0.8373 H         1 <0>         0.0325
     19 H10        -2.7265   -1.0530   -0.9271 H         1 <0>         0.0325
     20 H11         4.4444   -0.2464   -0.0570 H         1 <0>         0.1994
     21 H12         3.6432    0.9442    0.7724 H         1 <0>         0.1994
     22 H13         3.5903    0.9067   -0.8866 H         1 <0>         0.1994
@<TRIPOS>BOND
     1    1    9 2
     2    2    9 1
     3    3    7 1
     4    3   20 1
     5    3   21 1
     6    3   22 1
     7    4    5 1
     8    4    6 1
     9    4   10 1
    10    4   11 1
    11    5    7 1
    12    5   12 1
    13    5   13 1
    14    6    8 1
    15    6   14 1
    16    6   15 1
    17    7   16 1
    18    7   17 1
    19    8    9 1
    20    8   18 1
    21    8   19 1
