@<TRIPOS>MOLECULE
DB00226
   34    35     0     0     0
SMALL
USER_CHARGES

@<TRIPOS>ATOM
      1 O1         -0.1994    0.1170   -0.1012 O.3       1 <0>        -0.3399
      2 O2         -1.2681    2.1595   -0.5457 O.3       1 <0>        -0.3459
      3 N1          2.6023   -0.4952   -0.4592 N.2       1 <0>        -0.1111
      4 N2          4.3177   -2.0520   -0.3616 N.pl3     1 <0>        -0.2893
      5 N3          4.6495   -0.0764    0.7257 N.pl3     1 <0>        -0.2893
      6 C1         -1.4744    0.7774   -0.2060 C.3       1 <0>         0.1707
      7 C2         -2.3043    0.1197   -1.3130 C.3       1 <0>         0.0014
      8 C3         -2.1890    0.6902    1.1463 C.3       1 <0>         0.0014
      9 C4         -2.6986   -1.3135   -0.9623 C.3       1 <0>        -0.0482
     10 C5         -2.5854   -0.7427    1.4972 C.3       1 <0>        -0.0482
     11 C6         -3.4111   -1.3845    0.3856 C.3       1 <0>        -0.0527
     12 C7          0.7358    1.0392   -0.6658 C.3       1 <0>         0.1191
     13 C8          0.1274    2.3803   -0.3394 C.3       1 <0>         0.0803
     14 C9          2.1131    0.8286   -0.0744 C.3       1 <0>         0.1330
     15 C10         3.7856   -0.8249   -0.0426 C.2       1 <0>         0.3766
     16 H1         -1.7382    0.1136   -2.2528 H         1 <0>         0.0317
     17 H2         -3.2061    0.7159   -1.5029 H         1 <0>         0.0317
     18 H3         -3.0812    1.3293    1.1349 H         1 <0>         0.0317
     19 H4         -1.5401    1.0834    1.9388 H         1 <0>         0.0317
     20 H5         -1.8037   -1.9474   -0.9370 H         1 <0>         0.0267
     21 H6         -3.3510   -1.7169   -1.7449 H         1 <0>         0.0267
     22 H7         -3.1593   -0.7467    2.4308 H         1 <0>         0.0267
     23 H8         -1.6846   -1.3422    1.6763 H         1 <0>         0.0267
     24 H9         -4.3799   -0.8750    0.3118 H         1 <0>         0.0265
     25 H10        -3.6191   -2.4304    0.6378 H         1 <0>         0.0265
     26 H11         0.7449    0.8718   -1.7505 H         1 <0>         0.0653
     27 H12         0.2747    2.6642    0.7085 H         1 <0>         0.0588
     28 H13         0.4863    3.1865   -0.9844 H         1 <0>         0.0588
     29 H14         2.0541    0.8915    1.0194 H         1 <0>         0.0720
     30 H15         2.7882    1.6094   -0.4441 H         1 <0>         0.0720
     31 H16         3.7990   -2.7172   -0.9247 H         1 <0>         0.2546
     32 H17         5.2413   -2.3278   -0.0463 H         1 <0>         0.2546
     33 H18         5.5579   -0.4393    0.9941 H         1 <0>         0.2546
     34 H19         4.4158    0.8546    1.0514 H         1 <0>         0.2546
@<TRIPOS>BOND
     1    1    6 1
     2    1   12 1
     3    2    6 1
     4    2   13 1
     5    3   14 1
     6    3   15 2
     7    4   15 1
     8    4   31 1
     9    4   32 1
    10    5   15 1
    11    5   33 1
    12    5   34 1
    13    6    7 1
    14    6    8 1
    15    7    9 1
    16    7   16 1
    17    7   17 1
    18    8   10 1
    19    8   18 1
    20    8   19 1
    21    9   11 1
    22    9   20 1
    23    9   21 1
    24   10   11 1
    25   10   22 1
    26   10   23 1
    27   11   24 1
    28   11   25 1
    29   12   13 1
    30   12   14 1
    31   12   26 1
    32   13   27 1
    33   13   28 1
    34   14   29 1
    35   14   30 1
