@<TRIPOS>MOLECULE
DB00914
   30    30     0     0     0
SMALL
USER_CHARGES

@<TRIPOS>ATOM
      1 N1          0.8169    1.0187   -0.6752 N.2       1 <0>        -0.1101
      2 N2          2.8654    0.0876   -0.7393 N.2       1 <0>        -0.0038
      3 N3          2.5813    2.0255    0.5926 N.pl3     1 <0>        -0.2860
      4 N4          3.7586   -2.0511   -0.4804 N.pl3     1 <0>        -0.2888
      5 N5          2.2967   -1.3292    1.1189 N.pl3     1 <0>        -0.2888
      6 C1         -1.4884    1.8156   -0.8123 C.3       1 <0>         0.0066
      7 C2         -2.0887    0.4864   -0.4252 C.ar      1 <0>        -0.0443
      8 C3         -0.1062    2.0438   -0.2068 C.3       1 <0>         0.1088
      9 C4         -1.8507   -0.6245   -1.2195 C.ar      1 <0>        -0.0585
     10 C5         -2.8682    0.3993    0.7179 C.ar      1 <0>        -0.0585
     11 C6         -2.4059   -1.8531   -0.8618 C.ar      1 <0>        -0.0615
     12 C7         -3.4232   -0.8294    1.0759 C.ar      1 <0>        -0.0615
     13 C8         -3.1920   -1.9556    0.2860 C.ar      1 <0>        -0.0617
     14 C9          2.0394    1.0806   -0.2516 C.2       1 <0>         0.4249
     15 C10         2.9517   -1.0236   -0.0537 C.2       1 <0>         0.3873
     16 H1         -1.4310    1.8812   -1.9069 H         1 <0>         0.0345
     17 H2         -2.1611    2.6254   -0.5020 H         1 <0>         0.0345
     18 H3          0.2418    3.0388   -0.5096 H         1 <0>         0.0696
     19 H4         -0.1805    2.0204    0.8877 H         1 <0>         0.0696
     20 H5         -1.2421   -0.5564   -2.1167 H         1 <0>         0.0620
     21 H6         -3.0522    1.2703    1.3404 H         1 <0>         0.0620
     22 H7         -2.2263   -2.7300   -1.4769 H         1 <0>         0.0618
     23 H8         -4.0348   -0.9093    1.9697 H         1 <0>         0.0618
     24 H9         -3.6241   -2.9122    0.5647 H         1 <0>         0.0618
     25 H10         2.0341    2.7858    0.9798 H         1 <0>         0.2548
     26 H11         3.5603    1.9842    0.8552 H         1 <0>         0.2548
     27 H12         3.8346   -2.9174    0.0416 H         1 <0>         0.2547
     28 H13         4.3038   -1.9702   -1.3318 H         1 <0>         0.2547
     29 H14         1.6603   -0.6767    1.5632 H         1 <0>         0.2547
     30 H15         2.4304   -2.2247    1.5761 H         1 <0>         0.2547
@<TRIPOS>BOND
     1    1    8 1
     2    1   14 2
     3    2   14 1
     4    2   15 2
     5    3   14 1
     6    3   25 1
     7    3   26 1
     8    4   15 1
     9    4   27 1
    10    4   28 1
    11    5   15 1
    12    5   29 1
    13    5   30 1
    14    6    7 1
    15    6    8 1
    16    6   16 1
    17    6   17 1
    18    7    9 ar
    19    7   10 ar
    20    8   18 1
    21    8   19 1
    22    9   11 ar
    23    9   20 1
    24   10   12 ar
    25   10   21 1
    26   11   13 ar
    27   11   22 1
    28   12   13 ar
    29   12   23 1
    30   13   24 1
