@<TRIPOS>MOLECULE
DB00713
   47    50     0     0     0
SMALL
USER_CHARGES

@<TRIPOS>ATOM
      1 S1         -1.5761   -1.3033    0.0742 S.3       1 <0>        -0.1273
      2 O1         -1.2967    2.7479   -1.5791 O.2       1 <0>        -0.2734
      3 O2         -5.7106    0.7004   -0.4544 O.3       1 <0>        -0.4793
      4 O3         -4.6129   -0.7712   -1.8054 O.2       1 <0>        -0.2489
      5 O4          1.7381    2.2800   -1.8126 O.2       1 <0>        -0.2700
      6 O5          4.3961    1.7370    1.4161 O.3       1 <0>        -0.3586
      7 N1         -2.3988    0.6661   -1.4516 N.am      1 <0>        -0.2708
      8 N2          0.7473    0.3670   -0.9920 N.am      1 <0>        -0.2976
      9 N3          4.2837    0.3524    1.4515 N.2       1 <0>        -0.0773
     10 C1         -1.5819   -0.5401   -1.5918 C.3       1 <0>         0.1005
     11 C2         -2.7432   -0.0516    0.8061 C.3       1 <0>         0.0417
     12 C3         -3.3630    0.7256   -0.3770 C.3       1 <0>         0.1379
     13 C4         -0.3957    0.3835   -1.9149 C.3       1 <0>         0.1279
     14 C5         -1.3798    1.5446   -1.6738 C.2       1 <0>         0.2402
     15 C6         -3.7728   -0.7765    1.6788 C.3       1 <0>        -0.0484
     16 C7         -1.9100    0.8870    1.6950 C.3       1 <0>        -0.0484
     17 C8         -4.5993    0.1207   -0.9699 C.2       1 <0>         0.3269
     18 C9          1.7510    1.3433   -1.0146 C.2       1 <0>         0.2502
     19 C10         2.8130    1.2075   -0.0088 C.2       1 <0>         0.1060
     20 C11         3.3162    0.0617    0.5773 C.2       1 <0>         0.1257
     21 C12         3.4992    2.2368    0.5280 C.2       1 <0>         0.1469
     22 C13         2.9276   -1.3063    0.3525 C.ar      1 <0>         0.0044
     23 C14         3.4873    3.6974    0.3685 C.3       1 <0>        -0.0029
     24 C15         3.5625   -2.0551   -0.6358 C.ar      1 <0>        -0.0524
     25 C16         1.9178   -1.8759    1.1247 C.ar      1 <0>        -0.0524
     26 C17         3.1858   -3.3804   -0.8530 C.ar      1 <0>        -0.0611
     27 C18         1.5410   -3.2014    0.9075 C.ar      1 <0>        -0.0611
     28 C19         2.1750   -3.9536   -0.0813 C.ar      1 <0>        -0.0617
     29 H1         -1.9067   -1.1927   -2.4071 H         1 <0>         0.0640
     30 H2         -3.5474    1.7779   -0.1307 H         1 <0>         0.0631
     31 H3         -0.0662    0.3200   -2.9589 H         1 <0>         0.0622
     32 H4         -3.2953   -1.2829    2.5262 H         1 <0>         0.0244
     33 H5         -4.4974   -0.0662    2.0932 H         1 <0>         0.0244
     34 H6         -4.3328   -1.5350    1.1204 H         1 <0>         0.0244
     35 H7         -2.5510    1.6506    2.1514 H         1 <0>         0.0244
     36 H8         -1.4231    0.3426    2.5132 H         1 <0>         0.0244
     37 H9         -1.1294    1.4142    1.1370 H         1 <0>         0.0244
     38 H10         0.7436   -0.3172   -0.2475 H         1 <0>         0.1499
     39 H11        -6.5316    0.3172   -0.8302 H         1 <0>         0.2951
     40 H12         4.0717    4.1904    1.1521 H         1 <0>         0.0309
     41 H13         3.9132    3.9803   -0.5990 H         1 <0>         0.0309
     42 H14         2.4652    4.0852    0.4213 H         1 <0>         0.0309
     43 H15         4.3516   -1.6226   -1.2462 H         1 <0>         0.0624
     44 H16         1.4180   -1.3050    1.9037 H         1 <0>         0.0624
     45 H17         3.6791   -3.9661   -1.6231 H         1 <0>         0.0618
     46 H18         0.7560   -3.6488    1.5101 H         1 <0>         0.0618
     47 H19         1.8817   -4.9856   -0.2502 H         1 <0>         0.0618
@<TRIPOS>BOND
     1    1   10 1
     2    1   11 1
     3    2   14 2
     4    3   17 1
     5    3   39 1
     6    4   17 2
     7    5   18 2
     8    6    9 1
     9    6   21 1
    10    7   10 1
    11    7   12 1
    12    7   14 am
    13    8   13 1
    14    8   18 am
    15    8   38 1
    16    9   20 2
    17   10   13 1
    18   10   29 1
    19   11   12 1
    20   11   15 1
    21   11   16 1
    22   12   17 1
    23   12   30 1
    24   13   14 1
    25   13   31 1
    26   15   32 1
    27   15   33 1
    28   15   34 1
    29   16   35 1
    30   16   36 1
    31   16   37 1
    32   18   19 1
    33   19   20 1
    34   19   21 2
    35   20   22 1
    36   21   23 1
    37   22   24 ar
    38   22   25 ar
    39   23   40 1
    40   23   41 1
    41   23   42 1
    42   24   26 ar
    43   24   43 1
    44   25   27 ar
    45   25   44 1
    46   26   28 ar
    47   26   45 1
    48   27   28 ar
    49   27   46 1
    50   28   47 1
