@<TRIPOS>MOLECULE
DB00567
   41    43     0     0     0
SMALL
USER_CHARGES

@<TRIPOS>ATOM
      1 S1         -0.7731   -0.9610   -0.9513 S.3       1 <0>        -0.1311
      2 O1         -2.1228    3.1926    0.6421 O.2       1 <0>        -0.2731
      3 O2          2.1791    1.9960   -1.8075 O.2       1 <0>        -0.2737
      4 O3         -4.1312    0.8700    2.1131 O.3       1 <0>        -0.4763
      5 O4         -5.4540    1.5339    0.3695 O.2       1 <0>        -0.2437
      6 N1         -2.3704    1.0805   -0.3769 N.am      1 <0>        -0.2490
      7 N2          0.6375    1.6317   -0.1145 N.am      1 <0>        -0.3002
      8 N3          4.1804    2.2093    0.0848 N.3       1 <0>        -0.3163
      9 C1         -1.4046    0.6766   -1.3823 C.3       1 <0>         0.1042
     10 C2         -0.5596    1.8826   -0.9166 C.3       1 <0>         0.1284
     11 C3         -1.8058    2.2684   -0.0698 C.2       1 <0>         0.2440
     12 C4         -3.4413    0.3286   -0.0140 C.2       1 <0>         0.1217
     13 C5         -2.4174   -1.7455   -1.0585 C.3       1 <0>         0.0186
     14 C6         -3.5318   -0.9809   -0.3478 C.2       1 <0>        -0.0344
     15 C7          1.9294    1.7112   -0.6374 C.2       1 <0>         0.2350
     16 C8         -4.7233   -1.8602   -0.0530 C.3       1 <0>        -0.0407
     17 C9         -4.4664    0.9829    0.8127 C.2       1 <0>         0.3513
     18 C10         3.0074    1.3852    0.3906 C.3       1 <0>         0.1079
     19 C11         3.3260   -0.0956    0.3878 C.ar      1 <0>        -0.0219
     20 C12         2.6155   -0.9399    1.2224 C.ar      1 <0>        -0.0566
     21 C13         4.3205   -0.5700   -0.4489 C.ar      1 <0>        -0.0566
     22 C14         2.9091   -2.3034    1.2201 C.ar      1 <0>        -0.0614
     23 C15         4.6139   -1.9336   -0.4514 C.ar      1 <0>        -0.0614
     24 C16         3.9082   -2.8005    0.3830 C.ar      1 <0>        -0.0617
     25 H1         -1.7874    0.7716   -2.4054 H         1 <0>         0.0644
     26 H2         -0.3734    2.6137   -1.7132 H         1 <0>         0.0622
     27 H3          0.5372    1.3752    0.8648 H         1 <0>         0.1496
     28 H4         -2.3104   -2.7409   -0.6143 H         1 <0>         0.0423
     29 H5         -2.6816   -1.8769   -2.1135 H         1 <0>         0.0423
     30 H6         -5.5548   -1.3175    0.4050 H         1 <0>         0.0275
     31 H7         -4.4382   -2.6665    0.6308 H         1 <0>         0.0275
     32 H8         -5.0987   -2.3065   -0.9800 H         1 <0>         0.0275
     33 H9          2.6608    1.6816    1.3886 H         1 <0>         0.0605
     34 H10         4.8916    2.0676    0.8020 H         1 <0>         0.1192
     35 H11         3.9261    3.1954    0.1379 H         1 <0>         0.1192
     36 H12        -4.7907    1.2943    2.7025 H         1 <0>         0.2954
     37 H13         1.8360   -0.5632    1.8781 H         1 <0>         0.0621
     38 H14         4.8746    0.0756   -1.1232 H         1 <0>         0.0621
     39 H15         2.3592   -2.9784    1.8693 H         1 <0>         0.0618
     40 H16         5.3887   -2.3216   -1.1062 H         1 <0>         0.0618
     41 H17         4.1357   -3.8624    0.3801 H         1 <0>         0.0618
@<TRIPOS>BOND
     1    1    9 1
     2    1   13 1
     3    2   11 2
     4    3   15 2
     5    4   17 1
     6    4   36 1
     7    5   17 2
     8    6    9 1
     9    6   11 am
    10    6   12 1
    11    7   10 1
    12    7   15 am
    13    7   27 1
    14    8   18 1
    15    8   34 1
    16    8   35 1
    17    9   10 1
    18    9   25 1
    19   10   11 1
    20   10   26 1
    21   12   14 2
    22   12   17 1
    23   13   14 1
    24   13   28 1
    25   13   29 1
    26   14   16 1
    27   15   18 1
    28   16   30 1
    29   16   31 1
    30   16   32 1
    31   18   19 1
    32   18   33 1
    33   19   20 ar
    34   19   21 ar
    35   20   22 ar
    36   20   37 1
    37   21   23 ar
    38   21   38 1
    39   22   24 ar
    40   22   39 1
    41   23   24 ar
    42   23   40 1
    43   24   41 1
