@<TRIPOS>MOLECULE
DB00136
   74    76     0     0     0
SMALL
USER_CHARGES

@<TRIPOS>ATOM
      1 O1         -8.0069    2.1044   -0.0649 O.3       1 <0>        -0.3891
      2 O2          8.9041   -0.6038   -0.5242 O.3       1 <0>        -0.3914
      3 O3          5.8403    0.9593    2.0791 O.3       1 <0>        -0.3871
      4 C1         -0.4059   -1.0761    0.2593 C.3       1 <0>        -0.0225
      5 C2         -1.7509   -0.3355    0.4572 C.3       1 <0>        -0.0325
      6 C3          0.3299   -0.0374   -0.6231 C.3       1 <0>        -0.0139
      7 C4         -1.3364    1.1363    0.6867 C.3       1 <0>        -0.0489
      8 C5          0.0834    1.2833    0.1088 C.3       1 <0>        -0.0457
      9 C6         -0.5175   -2.3959   -0.5305 C.3       1 <0>        -0.0465
     10 C7         -2.6654   -0.8710    1.5495 C.3       1 <0>        -0.0405
     11 C8          1.7097   -0.5111   -0.9913 C.2       1 <0>        -0.0659
     12 C9          0.3009   -1.3385    1.6140 C.3       1 <0>        -0.0588
     13 C10         0.8625   -2.9073   -0.9824 C.3       1 <0>        -0.0488
     14 C11         1.6963   -1.8427   -1.7138 C.3       1 <0>        -0.0312
     15 C12        -3.9526   -0.0357    1.7163 C.3       1 <0>        -0.0501
     16 C13        -2.9782   -2.3515    1.3181 C.3       1 <0>        -0.0621
     17 C14         2.8465    0.1491   -0.7312 C.2       1 <0>        -0.0620
     18 C15        -4.8178    0.0920    0.4558 C.3       1 <0>        -0.0502
     19 C16        -6.0390    0.9801    0.7205 C.3       1 <0>        -0.0245
     20 C17         4.1490   -0.3398   -1.1100 C.2       1 <0>        -0.0582
     21 C18        -6.9481    1.2394   -0.4983 C.3       1 <0>         0.0605
     22 C19         5.2881    0.3210   -0.8497 C.2       1 <0>        -0.0399
     23 C20         6.6370   -0.2409   -1.2228 C.3       1 <0>        -0.0011
     24 C21        -6.2160    1.9759   -1.6206 C.3       1 <0>        -0.0363
     25 C22        -7.5887   -0.0423   -1.0350 C.3       1 <0>        -0.0363
     26 C23         5.3208    1.6060   -0.1542 C.2       1 <0>        -0.0229
     27 C24         7.6199   -0.2115   -0.0500 C.3       1 <0>         0.0619
     28 C25         6.3259    1.7161    0.9692 C.3       1 <0>         0.0822
     29 C26         7.7056    1.1937    0.5560 C.3       1 <0>         0.0037
     30 C27         4.5528    2.6462   -0.5169 C.2       1 <0>        -0.0928
     31 H1         -2.2843   -0.3786   -0.5027 H         1 <0>         0.0309
     32 H2         -0.2083    0.0529   -1.5820 H         1 <0>         0.0351
     33 H3         -2.0323    1.8159    0.1825 H         1 <0>         0.0268
     34 H4         -1.3253    1.4055    1.7490 H         1 <0>         0.0268
     35 H5          0.1552    2.1427   -0.5662 H         1 <0>         0.0271
     36 H6          0.7960    1.4448    0.9252 H         1 <0>         0.0271
     37 H7         -0.9691   -3.2034    0.0455 H         1 <0>         0.0271
     38 H8         -1.1444   -2.2506   -1.4196 H         1 <0>         0.0271
     39 H9         -2.1544   -0.8042    2.5191 H         1 <0>         0.0301
     40 H10         1.3515   -1.6166    1.4842 H         1 <0>         0.0235
     41 H11        -0.1714   -2.1563    2.1662 H         1 <0>         0.0235
     42 H12         0.2903   -0.4596    2.2667 H         1 <0>         0.0235
     43 H13         1.4236   -3.2724   -0.1135 H         1 <0>         0.0268
     44 H14         0.7245   -3.7722   -1.6426 H         1 <0>         0.0268
     45 H15         1.2464   -1.6746   -2.7021 H         1 <0>         0.0310
     46 H16         2.6683   -2.2920   -1.9107 H         1 <0>         0.0310
     47 H17        -4.5582   -0.4751    2.5199 H         1 <0>         0.0268
     48 H18        -3.6852    0.9691    2.0667 H         1 <0>         0.0268
     49 H19        -2.1717   -3.0001    1.6642 H         1 <0>         0.0233
     50 H20        -3.8533   -2.6491    1.9086 H         1 <0>         0.0233
     51 H21        -3.2157   -2.5675    0.2718 H         1 <0>         0.0233
     52 H22         2.7524    1.0603   -0.1587 H         1 <0>         0.0617
     53 H23        -4.2302    0.5319   -0.3534 H         1 <0>         0.0266
     54 H24        -5.1400   -0.9023    0.1305 H         1 <0>         0.0266
     55 H25        -6.6418    0.5373    1.5251 H         1 <0>         0.0293
     56 H26        -5.7044    1.9481    1.1184 H         1 <0>         0.0293
     57 H27         4.2542   -1.2811   -1.6319 H         1 <0>         0.0620
     58 H28         7.0470    0.3384   -2.0618 H         1 <0>         0.0338
     59 H29         6.5597   -1.2704   -1.5957 H         1 <0>         0.0338
     60 H30        -5.4360    1.3611   -2.0797 H         1 <0>         0.0257
     61 H31        -6.9131    2.2779   -2.4113 H         1 <0>         0.0257
     62 H32        -5.7576    2.8984   -1.2464 H         1 <0>         0.0257
     63 H33        -8.3195    0.1836   -1.8203 H         1 <0>         0.0257
     64 H34        -6.8467   -0.7302   -1.4514 H         1 <0>         0.0257
     65 H35        -8.1389   -0.5613   -0.2420 H         1 <0>         0.0257
     66 H36         7.3096   -0.9361    0.7126 H         1 <0>         0.0597
     67 H37         6.4343    2.7525    1.3102 H         1 <0>         0.0644
     68 H38         8.3739    1.1630    1.4257 H         1 <0>         0.0318
     69 H39         8.1695    1.8783   -0.1664 H         1 <0>         0.0318
     70 H40        -8.5970    2.2652   -0.8209 H         1 <0>         0.2101
     71 H41         4.6148    3.5917    0.0133 H         1 <0>         0.0538
     72 H42         3.8815    2.6176   -1.3690 H         1 <0>         0.0538
     73 H43         9.5153   -0.5785    0.2316 H         1 <0>         0.2098
     74 H44         4.9816    1.3345    2.3399 H         1 <0>         0.2102
@<TRIPOS>BOND
     1    1   21 1
     2    1   70 1
     3    2   27 1
     4    2   73 1
     5    3   28 1
     6    3   74 1
     7    4    5 1
     8    4    6 1
     9    4    9 1
    10    4   12 1
    11    5    7 1
    12    5   10 1
    13    5   31 1
    14    6    8 1
    15    6   11 1
    16    6   32 1
    17    7    8 1
    18    7   33 1
    19    7   34 1
    20    8   35 1
    21    8   36 1
    22    9   13 1
    23    9   37 1
    24    9   38 1
    25   10   15 1
    26   10   16 1
    27   10   39 1
    28   11   14 1
    29   11   17 2
    30   12   40 1
    31   12   41 1
    32   12   42 1
    33   13   14 1
    34   13   43 1
    35   13   44 1
    36   14   45 1
    37   14   46 1
    38   15   18 1
    39   15   47 1
    40   15   48 1
    41   16   49 1
    42   16   50 1
    43   16   51 1
    44   17   20 1
    45   17   52 1
    46   18   19 1
    47   18   53 1
    48   18   54 1
    49   19   21 1
    50   19   55 1
    51   19   56 1
    52   20   22 2
    53   20   57 1
    54   21   24 1
    55   21   25 1
    56   22   23 1
    57   22   26 1
    58   23   27 1
    59   23   58 1
    60   23   59 1
    61   24   60 1
    62   24   61 1
    63   24   62 1
    64   25   63 1
    65   25   64 1
    66   25   65 1
    67   26   28 1
    68   26   30 2
    69   27   29 1
    70   27   66 1
    71   28   29 1
    72   28   67 1
    73   29   68 1
    74   29   69 1
    75   30   71 1
    76   30   72 1
