@<TRIPOS>MOLECULE
DB00811
   29    30     0     0     0
SMALL
USER_CHARGES

@<TRIPOS>ATOM
      1 O1          1.0420    0.3964    1.1095 O.3       1 <0>        -0.3443
      2 O2          1.3851   -2.3466   -1.1881 O.3       1 <0>        -0.3846
      3 O3          3.4172   -1.3405    0.3098 O.3       1 <0>        -0.3864
      4 O4          1.6919    3.0794    0.6175 O.3       1 <0>        -0.3924
      5 O5         -3.6792    2.1225   -0.3845 O.2       1 <0>        -0.2670
      6 N1         -0.8903   -0.7746    0.3849 N.pl3     1 <0>        -0.2201
      7 N2         -1.5138    0.3855    0.1296 N.2       1 <0>        -0.1425
      8 N3         -2.9964   -1.3489    0.2920 N.2       1 <0>        -0.2109
      9 N4         -5.1556    0.3954   -0.2013 N.am      1 <0>        -0.3227
     10 C1          2.6590   -0.3970   -0.4472 C.3       1 <0>         0.1136
     11 C2          1.3080   -0.9930   -0.7898 C.3       1 <0>         0.1299
     12 C3          2.2793    0.7694    0.4596 C.3       1 <0>         0.1126
     13 C4          0.5629   -0.8305    0.5263 C.3       1 <0>         0.1816
     14 C5          2.0479    2.0651   -0.3054 C.3       1 <0>         0.0730
     15 C6         -1.7781   -1.8004    0.4802 C.cat     1 <0>         0.1181
     16 C7         -2.7859   -0.0160    0.0831 C.2       1 <0>         0.2361
     17 C8         -3.8539    0.9029   -0.1705 C.2       1 <0>         0.2805
     18 H1          0.8293   -0.4181   -1.5910 H         1 <0>         0.0666
     19 H2          3.2484   -0.1217   -1.3264 H         1 <0>         0.0647
     20 H3          3.0137    0.9338    1.2563 H         1 <0>         0.0647
     21 H4          0.7750   -1.6466    1.2282 H         1 <0>         0.0881
     22 H5          1.2323    1.9747   -1.0298 H         1 <0>         0.0584
     23 H6          2.9539    2.3797   -0.8315 H         1 <0>         0.0584
     24 H7          1.8589   -2.8374   -0.4952 H         1 <0>         0.2101
     25 H8          4.2555   -0.9111    0.5521 H         1 <0>         0.2100
     26 H9         -1.4931   -2.8235    0.6802 H         1 <0>         0.1045
     27 H10         0.8881    2.7862    1.0799 H         1 <0>         0.2095
     28 H11        -5.3544   -0.5875   -0.0440 H         1 <0>         0.1453
     29 H12        -5.9476    1.0025   -0.3845 H         1 <0>         0.1453
@<TRIPOS>BOND
     1    1   12 1
     2    1   13 1
     3    2   11 1
     4    2   24 1
     5    3   10 1
     6    3   25 1
     7    4   14 1
     8    4   27 1
     9    5   17 2
    10    6    7 1
    11    6   13 1
    12    6   15 2
    13    7   16 1
    14    8   15 1
    15    8   16 2
    16    9   17 am
    17    9   28 1
    18    9   29 1
    19   10   11 1
    20   10   12 1
    21   10   19 1
    22   11   13 1
    23   11   18 1
    24   12   14 1
    25   12   20 1
    26   13   21 1
    27   14   22 1
    28   14   23 1
    29   15   26 1
    30   16   17 1
