@<TRIPOS>MOLECULE
DB00906
   50    52     0     0     0
SMALL
USER_CHARGES

@<TRIPOS>ATOM
      1 S1         -4.7994   -0.1383    1.7048 S.3       1 <0>        -0.0964
      2 S2         -2.1088    0.5213   -2.3822 S.3       1 <0>        -0.0964
      3 O1          6.5666   -0.8333   -1.8009 O.3       1 <0>        -0.4804
      4 O2          5.6379   -2.5482   -0.6210 O.2       1 <0>        -0.2507
      5 N1          2.2962   -0.0507    0.1794 N.3       1 <0>        -0.3012
      6 C1          4.6470   -0.3456   -0.5389 C.3       1 <0>         0.0690
      7 C2          3.2907   -1.0197   -0.3034 C.3       1 <0>         0.0118
      8 C3          5.1399    0.3603    0.7228 C.3       1 <0>        -0.0378
      9 C4          4.0652    1.2992    1.2596 C.3       1 <0>        -0.0394
     10 C5          2.7306    0.5738    1.4367 C.3       1 <0>        -0.0011
     11 C6          0.9944   -0.6953    0.3513 C.3       1 <0>         0.0024
     12 C7         -0.0626    0.3403    0.7325 C.3       1 <0>        -0.0210
     13 C8          5.6448   -1.3768   -0.9691 C.2       1 <0>         0.3091
     14 C9         -1.4163   -0.3042    0.8934 C.2       1 <0>        -0.0735
     15 C10        -2.5559   -0.0366    0.2158 C.2       1 <0>        -0.0010
     16 C11        -3.7588   -0.7644    0.5144 C.2       1 <0>         0.0230
     17 C12        -2.5063    0.9873   -0.7980 C.2       1 <0>         0.0230
     18 C13        -4.2018   -1.9270   -0.0398 C.2       1 <0>        -0.0357
     19 C14        -2.7412    2.3189   -0.6591 C.2       1 <0>        -0.0357
     20 C15        -5.4449   -2.3290    0.5284 C.2       1 <0>        -0.0512
     21 C16        -2.5914    2.9985   -1.9022 C.2       1 <0>        -0.0512
     22 C17        -3.5053   -2.6994   -1.0985 C.3       1 <0>        -0.0386
     23 C18        -3.1070    3.0072    0.6038 C.3       1 <0>        -0.0386
     24 C19        -5.8840   -1.4459    1.4901 C.2       1 <0>        -0.0235
     25 C20        -2.2486    2.1398   -2.9234 C.2       1 <0>        -0.0235
     26 H1          4.5275    0.3844   -1.3513 H         1 <0>         0.0426
     27 H2          2.9499   -1.4582   -1.2506 H         1 <0>         0.0434
     28 H3          3.3893   -1.8490    0.4112 H         1 <0>         0.0434
     29 H4          6.0563    0.9244    0.5122 H         1 <0>         0.0274
     30 H5          5.3992   -0.3775    1.4933 H         1 <0>         0.0274
     31 H6          4.3893    1.7194    2.2185 H         1 <0>         0.0278
     32 H7          3.9381    2.1420    0.5680 H         1 <0>         0.0278
     33 H8          2.8169   -0.1713    2.2384 H         1 <0>         0.0426
     34 H9          2.0354    1.3462    1.7747 H         1 <0>         0.0426
     35 H10         1.0427   -1.4900    1.1081 H         1 <0>         0.0429
     36 H11         0.6936   -1.1676   -0.5932 H         1 <0>         0.0429
     37 H12        -0.0633    1.1588    0.0061 H         1 <0>         0.0320
     38 H13         0.1407    0.7885    1.7102 H         1 <0>         0.0320
     39 H14        -1.4499   -1.0741    1.6660 H         1 <0>         0.0579
     40 H15         7.2310   -1.4933   -2.0930 H         1 <0>         0.2951
     41 H16        -5.9949   -3.2192    0.2502 H         1 <0>         0.0626
     42 H17        -2.7271    4.0628   -2.0475 H         1 <0>         0.0626
     43 H18        -3.8266   -3.7467   -1.0959 H         1 <0>         0.0278
     44 H19        -3.7319   -2.2843   -2.0855 H         1 <0>         0.0278
     45 H20        -2.4198   -2.6953   -0.9568 H         1 <0>         0.0278
     46 H21        -2.8627    4.0740    0.5539 H         1 <0>         0.0278
     47 H22        -4.1823    2.9204    0.7881 H         1 <0>         0.0278
     48 H23        -2.5689    2.5938    1.4626 H         1 <0>         0.0278
     49 H24        -6.7898   -1.5059    2.0768 H         1 <0>         0.0693
     50 H25        -2.0737    2.3855   -3.9614 H         1 <0>         0.0693
@<TRIPOS>BOND
     1    1   16 1
     2    1   24 1
     3    2   17 1
     4    2   25 1
     5    3   13 1
     6    3   40 1
     7    4   13 2
     8    5    7 1
     9    5   10 1
    10    5   11 1
    11    6    7 1
    12    6    8 1
    13    6   13 1
    14    6   26 1
    15    7   27 1
    16    7   28 1
    17    8    9 1
    18    8   29 1
    19    8   30 1
    20    9   10 1
    21    9   31 1
    22    9   32 1
    23   10   33 1
    24   10   34 1
    25   11   12 1
    26   11   35 1
    27   11   36 1
    28   12   14 1
    29   12   37 1
    30   12   38 1
    31   14   15 2
    32   14   39 1
    33   15   16 1
    34   15   17 1
    35   16   18 2
    36   17   19 2
    37   18   20 1
    38   18   22 1
    39   19   21 1
    40   19   23 1
    41   20   24 2
    42   20   41 1
    43   21   25 2
    44   21   42 1
    45   22   43 1
    46   22   44 1
    47   22   45 1
    48   23   46 1
    49   23   47 1
    50   23   48 1
    51   24   49 1
    52   25   50 1
