@<TRIPOS>MOLECULE
DB00959
   57    60     0     0     0
SMALL
USER_CHARGES

@<TRIPOS>ATOM
      1 O1         -3.1980   -0.2100    1.9113 O.3       1 <0>        -0.3804
      2 O2         -0.0667    2.1599   -1.5309 O.3       1 <0>        -0.3914
      3 O3         -5.0903   -0.5179   -0.9209 O.2       1 <0>        -0.2919
      4 O4         -6.2867    1.6241    0.1743 O.3       1 <0>        -0.3874
      5 O5          5.7564    1.4922    2.2771 O.2       1 <0>        -0.2879
      6 C1         -1.9411    0.0818   -0.1825 C.3       1 <0>         0.0091
      7 C2         -0.8826   -0.9474    0.2719 C.3       1 <0>        -0.0292
      8 C3          0.5159   -0.6872   -0.3089 C.3       1 <0>        -0.0308
      9 C4          1.0021    0.7254    0.1624 C.3       1 <0>         0.0007
     10 C5         -3.1924   -0.5139    0.5194 C.3       1 <0>         0.1315
     11 C6         -1.4810    1.4672    0.3130 C.3       1 <0>        -0.0178
     12 C7         -0.0528    1.8352   -0.1480 C.3       1 <0>         0.0600
     13 C8         -1.5570   -2.2902    0.0023 C.3       1 <0>        -0.0463
     14 C9          2.4837    1.0283   -0.2951 C.3       1 <0>         0.0133
     15 C10        -3.0440   -2.0405    0.3285 C.3       1 <0>        -0.0162
     16 C11         1.4947   -1.7900    0.1318 C.3       1 <0>        -0.0432
     17 C12         2.9339   -1.5179   -0.3263 C.3       1 <0>        -0.0212
     18 C13        -2.1647    0.0944   -1.7203 C.3       1 <0>        -0.0562
     19 C14         3.3650   -0.1445    0.1813 C.2       1 <0>        -0.0531
     20 C15        -4.5021    0.0160    0.0183 C.2       1 <0>         0.1902
     21 C16         2.6528    1.1770   -1.8250 C.3       1 <0>        -0.0520
     22 C17         2.9409    2.3520    0.3021 C.2       1 <0>        -0.0701
     23 C18         3.8232   -2.7029    0.0756 C.3       1 <0>        -0.0587
     24 C19         4.4109    0.0290    1.0084 C.2       1 <0>        -0.0146
     25 C20        -5.0489    1.2348    0.7309 C.3       1 <0>         0.1052
     26 C21         3.9800    2.5151    1.1248 C.2       1 <0>        -0.0180
     27 C22         4.7935    1.3581    1.5292 C.2       1 <0>         0.1787
     28 H1         -0.7764   -0.8781    1.3674 H         1 <0>         0.0310
     29 H2          0.4718   -0.7204   -1.4015 H         1 <0>         0.0308
     30 H3          1.0321    0.6751    1.2646 H         1 <0>         0.0340
     31 H4         -1.4945    1.5011    1.4091 H         1 <0>         0.0297
     32 H5         -2.1786    2.2350   -0.0404 H         1 <0>         0.0297
     33 H6          0.2192    2.7555    0.3793 H         1 <0>         0.0596
     34 H7         -1.1454   -3.0902    0.6262 H         1 <0>         0.0269
     35 H8         -1.4409   -2.5922   -1.0448 H         1 <0>         0.0269
     36 H9         -3.6561   -2.4424   -0.4857 H         1 <0>         0.0297
     37 H10        -3.3170   -2.5874    1.2383 H         1 <0>         0.0297
     38 H11         1.1647   -2.7519   -0.2804 H         1 <0>         0.0274
     39 H12         1.4682   -1.8922    1.2254 H         1 <0>         0.0274
     40 H13         2.9520   -1.4938   -1.4231 H         1 <0>         0.0343
     41 H14        -2.7558    0.9678   -2.0187 H         1 <0>         0.0236
     42 H15        -1.2474    0.1008   -2.3057 H         1 <0>         0.0236
     43 H16        -2.7100   -0.7900   -2.0670 H         1 <0>         0.0236
     44 H17         2.2826    2.1382   -2.1979 H         1 <0>         0.0241
     45 H18         3.7139    1.1364   -2.1060 H         1 <0>         0.0241
     46 H19         2.1471    0.3875   -2.3885 H         1 <0>         0.0241
     47 H20         2.3930    3.2477    0.0175 H         1 <0>         0.0582
     48 H21        -3.8559   -0.7780    2.3478 H         1 <0>         0.2108
     49 H22         0.1646    1.3761   -2.0496 H         1 <0>         0.2098
     50 H23         3.4544   -3.6296   -0.3783 H         1 <0>         0.0235
     51 H24         4.8525   -2.5596   -0.2706 H         1 <0>         0.0235
     52 H25         3.8377   -2.8512    1.1610 H         1 <0>         0.0235
     53 H26         5.0252   -0.7949    1.3524 H         1 <0>         0.0656
     54 H27        -4.3549    2.0699    0.6238 H         1 <0>         0.0637
     55 H28        -5.2205    1.0291    1.7901 H         1 <0>         0.0637
     56 H29         4.2540    3.4932    1.5024 H         1 <0>         0.0653
     57 H30        -6.9240    0.9104    0.3483 H         1 <0>         0.2100
@<TRIPOS>BOND
     1    1   10 1
     2    1   48 1
     3    2   12 1
     4    2   49 1
     5    3   20 2
     6    4   25 1
     7    4   57 1
     8    5   27 2
     9    6    7 1
    10    6   10 1
    11    6   11 1
    12    6   18 1
    13    7    8 1
    14    7   13 1
    15    7   28 1
    16    8    9 1
    17    8   16 1
    18    8   29 1
    19    9   12 1
    20    9   14 1
    21    9   30 1
    22   10   15 1
    23   10   20 1
    24   11   12 1
    25   11   31 1
    26   11   32 1
    27   12   33 1
    28   13   15 1
    29   13   34 1
    30   13   35 1
    31   14   19 1
    32   14   21 1
    33   14   22 1
    34   15   36 1
    35   15   37 1
    36   16   17 1
    37   16   38 1
    38   16   39 1
    39   17   19 1
    40   17   23 1
    41   17   40 1
    42   18   41 1
    43   18   42 1
    44   18   43 1
    45   19   24 2
    46   20   25 1
    47   21   44 1
    48   21   45 1
    49   21   46 1
    50   22   26 2
    51   22   47 1
    52   23   50 1
    53   23   51 1
    54   23   52 1
    55   24   27 1
    56   24   53 1
    57   25   54 1
    58   25   55 1
    59   26   27 1
    60   26   56 1
