@<TRIPOS>MOLECULE
DB00664
   31    32     0     0     0
SMALL
USER_CHARGES

@<TRIPOS>ATOM
      1 S1          0.1831    2.6179    0.9921 S.o2      1 <0>         0.0736
      2 O1         -0.3521    3.1395    2.2443 O.2       1 <0>        -0.1499
      3 O2          0.5622    3.5583   -0.0554 O.2       1 <0>        -0.1499
      4 O3          1.2952   -1.2163    1.5128 O.3       1 <0>        -0.4773
      5 N1          1.5223    1.6004    1.3657 N.pl3     1 <0>        -0.1952
      6 N2          2.6038    1.3335   -0.7141 N.ar      1 <0>        -0.2328
      7 N3         -3.7945   -1.2035   -1.2286 N.pl3     1 <0>        -0.3580
      8 N4          2.3615   -1.4545   -0.5282 N.ar      1 <0>        -0.2169
      9 C1         -0.9853    1.4962    0.3402 C.ar      1 <0>         0.1087
     10 C2         -1.8978    0.8685    1.1881 C.ar      1 <0>        -0.0333
     11 C3         -1.0054    1.2268   -1.0282 C.ar      1 <0>        -0.0333
     12 C4          2.0199    0.7305    0.3341 C.ar      1 <0>         0.2006
     13 C5         -2.8507   -0.2979   -0.7011 C.ar      1 <0>         0.0247
     14 C6         -2.8303   -0.0287    0.6674 C.ar      1 <0>        -0.0392
     15 C7         -1.9381    0.3298   -1.5490 C.ar      1 <0>        -0.0392
     16 C8          1.8970   -0.6323    0.4333 C.ar      1 <0>         0.2572
     17 C9          3.0681    0.5111   -1.6758 C.ar      1 <0>         0.0481
     18 C10         2.9490   -0.8581   -1.5846 C.ar      1 <0>         0.0496
     19 C11         1.2199   -2.6383    1.5163 C.3       1 <0>         0.0805
     20 H1          1.4884    1.1635    2.2967 H         1 <0>         0.1754
     21 H2         -1.8954    1.0564    2.2580 H         1 <0>         0.0638
     22 H3         -0.3042    1.7031   -1.7075 H         1 <0>         0.0638
     23 H4         -3.5351   -0.5131    1.3385 H         1 <0>         0.0636
     24 H5         -1.9434    0.1281   -2.6171 H         1 <0>         0.0636
     25 H6         -4.4550   -1.6610   -0.6145 H         1 <0>         0.1423
     26 H7         -3.8077   -1.4004   -2.2205 H         1 <0>         0.1423
     27 H8          3.5397    0.9897   -2.5251 H         1 <0>         0.0846
     28 H9          3.3217   -1.5183   -2.3579 H         1 <0>         0.0846
     29 H10         2.2200   -3.0843    1.5113 H         1 <0>         0.0660
     30 H11         0.6257   -3.0009    0.6708 H         1 <0>         0.0660
     31 H12         0.7174   -2.9457    2.4381 H         1 <0>         0.0660
@<TRIPOS>BOND
     1    1    2 2
     2    1    3 2
     3    1    5 1
     4    1    9 1
     5    4   16 1
     6    4   19 1
     7    5   12 1
     8    5   20 1
     9    6   12 ar
    10    6   17 ar
    11    7   13 1
    12    7   25 1
    13    7   26 1
    14    8   16 ar
    15    8   18 ar
    16    9   10 ar
    17    9   11 ar
    18   10   14 ar
    19   10   21 1
    20   11   15 ar
    21   11   22 1
    22   12   16 ar
    23   13   14 ar
    24   13   15 ar
    25   14   23 1
    26   15   24 1
    27   17   18 ar
    28   17   27 1
    29   18   28 1
    30   19   29 1
    31   19   30 1
    32   19   31 1
