@<TRIPOS>MOLECULE
DB00150
   27    28     0     0     0
SMALL
USER_CHARGES

@<TRIPOS>ATOM
      1 O1          1.0909   -0.9895    1.9068 O.3       1 <0>        -0.4795
      2 O2          2.0548   -2.4071    0.4211 O.2       1 <0>        -0.2492
      3 N1         -1.4587    2.1947    0.3380 N.pl3     1 <0>        -0.3604
      4 N2          3.7679   -0.3970   -0.3244 N.3       1 <0>        -0.3181
      5 C1          0.2145    0.9708   -0.4551 C.2       1 <0>        -0.0204
      6 C2          1.5572    0.5622   -0.9156 C.3       1 <0>        -0.0001
      7 C3         -0.9513    0.1560   -0.4126 C.2       1 <0>         0.0029
      8 C4          2.4604   -0.0151    0.2043 C.3       1 <0>         0.1073
      9 C5         -1.9867    0.9479    0.0887 C.2       1 <0>         0.0467
     10 C6         -0.1293    2.2183    0.0124 C.2       1 <0>         0.0060
     11 C7         -1.2260   -1.1834   -0.7534 C.2       1 <0>        -0.0523
     12 C8         -3.2882    0.4655    0.2670 C.2       1 <0>        -0.0378
     13 C9          1.8588   -1.2663    0.8209 C.2       1 <0>         0.3220
     14 C10        -2.5233   -1.6796   -0.5805 C.2       1 <0>        -0.0611
     15 C11        -3.5369   -0.8661   -0.0780 C.2       1 <0>        -0.0598
     16 H1          1.4531   -0.1789   -1.7200 H         1 <0>         0.0334
     17 H2          2.0610    1.4265   -1.3698 H         1 <0>         0.0334
     18 H3          2.6114    0.7291    0.9955 H         1 <0>         0.0577
     19 H4          0.4514    3.1207    0.1439 H         1 <0>         0.0810
     20 H5         -1.9783    2.9786    0.7080 H         1 <0>         0.1653
     21 H6         -0.4506   -1.8317   -1.1509 H         1 <0>         0.0624
     22 H7         -4.0780    1.0980    0.6581 H         1 <0>         0.0638
     23 H8         -2.7412   -2.7114   -0.8428 H         1 <0>         0.0618
     24 H9          4.3786   -0.6801    0.4413 H         1 <0>         0.1190
     25 H10         4.2115    0.4130   -0.7560 H         1 <0>         0.1190
     26 H11        -4.5374   -1.2721    0.0481 H         1 <0>         0.0618
     27 H12         0.7143   -1.8030    2.3050 H         1 <0>         0.2951
@<TRIPOS>BOND
     1    1   13 1
     2    1   27 1
     3    2   13 2
     4    3    9 1
     5    3   10 2
     6    3   20 1
     7    4    8 1
     8    4   24 1
     9    4   25 1
    10    5    6 1
    11    5    7 2
    12    5   10 1
    13    6    8 1
    14    6   16 1
    15    6   17 1
    16    7    9 1
    17    7   11 2
    18    8   13 1
    19    8   18 1
    20    9   12 2
    21   10   19 1
    22   11   14 1
    23   11   21 1
    24   12   15 1
    25   12   22 1
    26   14   15 2
    27   14   23 1
    28   15   26 1
