@<TRIPOS>MOLECULE
DB00319
   63    66     0     0     0
SMALL
USER_CHARGES

@<TRIPOS>ATOM
      1 S1          3.6790   -0.0439   -1.0613 S.3       1 <0>        -0.1273
      2 O1          3.8148   -2.6964    2.4541 O.2       1 <0>        -0.2734
      3 O2          7.7859   -1.3082    1.3294 O.3       1 <0>        -0.4793
      4 O3          7.1140   -2.9298   -0.1248 O.2       1 <0>        -0.2489
      5 O4          0.2267   -1.1981   -1.1514 O.2       1 <0>        -0.2734
      6 O5         -2.6528    0.8513    2.2440 O.2       1 <0>        -0.2522
      7 O6         -3.5195   -0.6482   -1.6058 O.2       1 <0>        -0.2645
      8 O7         -5.9593   -0.2862   -2.4858 O.2       1 <0>        -0.2649
      9 N1          4.5414   -2.0799    0.2948 N.am      1 <0>        -0.2708
     10 N2          1.5052   -1.2252    0.7826 N.am      1 <0>        -0.2999
     11 N3         -1.7481    0.1399    0.2524 N.am      1 <0>        -0.2836
     12 N4         -4.1025    0.2266    0.5096 N.am      1 <0>        -0.2167
     13 N5         -6.7667   -0.3192   -0.2967 N.am      1 <0>        -0.2925
     14 C1          3.5118   -1.8338   -0.7194 C.3       1 <0>         0.1005
     15 C2          5.5066   -0.1076   -0.7077 C.3       1 <0>         0.0417
     16 C3          5.6188   -1.1235    0.4494 C.3       1 <0>         0.1379
     17 C4          2.4708   -2.2427    0.3317 C.3       1 <0>         0.1277
     18 C5          3.6699   -2.4493    1.2783 C.2       1 <0>         0.2402
     19 C6          5.9786    1.2824   -0.2771 C.3       1 <0>        -0.0484
     20 C7          6.2225   -0.5300   -1.9977 C.3       1 <0>        -0.0484
     21 C8          6.8956   -1.9006    0.4965 C.2       1 <0>         0.3269
     22 C9          0.4534   -0.7886   -0.0144 C.2       1 <0>         0.2386
     23 C10        -0.3708    0.3015    0.6583 C.3       1 <0>         0.1261
     24 C11         0.1536    1.6814    0.3365 C.ar      1 <0>        -0.0184
     25 C12        -2.8159    0.4332    1.0939 C.2       1 <0>         0.3098
     26 C13         1.1191    2.2687    1.1541 C.ar      1 <0>        -0.0563
     27 C14        -0.3274    2.3680   -0.7786 C.ar      1 <0>        -0.0563
     28 C15        -5.2497    0.6656    1.3014 C.3       1 <0>         0.0401
     29 C16        -6.4148   -0.2797    1.1088 C.3       1 <0>         0.0314
     30 C17        -4.3496   -0.2477   -0.7962 C.2       1 <0>         0.3091
     31 C18         1.6037    3.5425    0.8570 C.ar      1 <0>        -0.0614
     32 C19         0.1573    3.6418   -1.0756 C.ar      1 <0>        -0.0614
     33 C20        -5.7840   -0.2785   -1.2725 C.2       1 <0>         0.3022
     34 C21        -8.1683   -0.4888   -0.6419 C.3       1 <0>         0.0123
     35 C22         1.1228    4.2289   -0.2578 C.ar      1 <0>        -0.0617
     36 C23        -8.5562   -1.9524   -0.6837 C.3       1 <0>        -0.0493
     37 H1          3.6031   -2.4946   -1.5862 H         1 <0>         0.0640
     38 H2          5.4681   -0.6368    1.4229 H         1 <0>         0.0631
     39 H3          1.9644   -3.1892    0.1048 H         1 <0>         0.0622
     40 H4          7.0467    1.2691   -0.0319 H         1 <0>         0.0244
     41 H5          5.4444    1.6379    0.6116 H         1 <0>         0.0244
     42 H6          5.8349    2.0225   -1.0729 H         1 <0>         0.0244
     43 H7          5.9238   -1.5295   -2.3327 H         1 <0>         0.0244
     44 H8          7.3095   -0.5425   -1.8563 H         1 <0>         0.0244
     45 H9          6.0189    0.1708   -2.8163 H         1 <0>         0.0244
     46 H10         1.6112   -0.8141    1.7071 H         1 <0>         0.1496
     47 H11        -0.3365    0.1533    1.7453 H         1 <0>         0.0646
     48 H12         8.6314   -1.8036    1.3741 H         1 <0>         0.2951
     49 H13        -1.9295   -0.1784   -0.6931 H         1 <0>         0.1513
     50 H14         1.5033    1.7445    2.0250 H         1 <0>         0.0621
     51 H15        -1.0676    1.9323   -1.4436 H         1 <0>         0.0621
     52 H16        -4.9952    0.7243    2.3642 H         1 <0>         0.0485
     53 H17        -5.5071    1.6768    0.9624 H         1 <0>         0.0485
     54 H18        -6.1595   -1.2990    1.4201 H         1 <0>         0.0480
     55 H19        -7.2709    0.0644    1.6981 H         1 <0>         0.0480
     56 H20         2.3564    3.9991    1.4929 H         1 <0>         0.0618
     57 H21        -0.2142    4.1752   -1.9458 H         1 <0>         0.0618
     58 H22        -8.3412   -0.0513   -1.6317 H         1 <0>         0.0462
     59 H23        -8.7900    0.0635    0.0708 H         1 <0>         0.0462
     60 H24         1.5010    5.2202   -0.4899 H         1 <0>         0.0618
     61 H25        -9.6087   -2.0606   -0.9626 H         1 <0>         0.0245
     62 H26        -8.4115   -2.4266    0.2926 H         1 <0>         0.0245
     63 H27        -7.9511   -2.5012   -1.4131 H         1 <0>         0.0245
@<TRIPOS>BOND
     1    1   14 1
     2    1   15 1
     3    2   18 2
     4    3   21 1
     5    3   48 1
     6    4   21 2
     7    5   22 2
     8    6   25 2
     9    7   30 2
    10    8   33 2
    11    9   14 1
    12    9   16 1
    13    9   18 am
    14   10   17 1
    15   10   22 am
    16   10   46 1
    17   11   23 1
    18   11   25 am
    19   11   49 1
    20   12   25 am
    21   12   28 1
    22   12   30 am
    23   13   29 1
    24   13   33 am
    25   13   34 1
    26   14   17 1
    27   14   37 1
    28   15   16 1
    29   15   19 1
    30   15   20 1
    31   16   21 1
    32   16   38 1
    33   17   18 1
    34   17   39 1
    35   19   40 1
    36   19   41 1
    37   19   42 1
    38   20   43 1
    39   20   44 1
    40   20   45 1
    41   22   23 1
    42   23   24 1
    43   23   47 1
    44   24   26 ar
    45   24   27 ar
    46   26   31 ar
    47   26   50 1
    48   27   32 ar
    49   27   51 1
    50   28   29 1
    51   28   52 1
    52   28   53 1
    53   29   54 1
    54   29   55 1
    55   30   33 1
    56   31   35 ar
    57   31   56 1
    58   32   35 ar
    59   32   57 1
    60   34   36 1
    61   34   58 1
    62   34   59 1
    63   35   60 1
    64   36   61 1
    65   36   62 1
    66   36   63 1
