@<TRIPOS>MOLECULE
DB00963
   32    33     0     0     0
SMALL
USER_CHARGES

@<TRIPOS>ATOM
      1 Br1         5.6996    2.2603   -1.5344 Br        1 <0>        -0.0503
      2 O1          1.4947   -1.8538    1.9619 O.2       1 <0>        -0.2866
      3 O2         -4.5662    2.4429    0.0208 O.3       1 <0>        -0.4804
      4 O3         -2.7378    1.9282   -1.2226 O.2       1 <0>        -0.2507
      5 N1         -0.8265    0.5983    1.6897 N.pl3     1 <0>        -0.3572
      6 C1         -2.3427   -0.5230    0.1544 C.ar      1 <0>        -0.0154
      7 C2         -0.0935   -1.2899    0.3402 C.ar      1 <0>         0.0431
      8 C3         -1.0768   -0.4094    0.7289 C.ar      1 <0>         0.0392
      9 C4         -3.4523    0.4026    0.5359 C.3       1 <0>         0.0716
     10 C5         -2.5917   -1.5149   -0.7940 C.ar      1 <0>        -0.0563
     11 C6          1.2746   -1.1971    0.9335 C.2       1 <0>         0.1949
     12 C7         -0.3090   -2.2798   -0.5937 C.ar      1 <0>        -0.0491
     13 C8          2.3240   -0.3776    0.3484 C.ar      1 <0>         0.0224
     14 C9         -1.5750   -2.3934   -1.1681 C.ar      1 <0>        -0.0607
     15 C10         2.0703    0.3585   -0.8089 C.ar      1 <0>        -0.0499
     16 C11         3.5839   -0.3272    0.9447 C.ar      1 <0>        -0.0499
     17 C12        -3.5188    1.6481   -0.3237 C.2       1 <0>         0.3091
     18 C13         3.0766    1.1450   -1.3700 C.ar      1 <0>        -0.0471
     19 C14         4.5903    0.4592    0.3835 C.ar      1 <0>        -0.0471
     20 C15         4.3365    1.1951   -0.7738 C.ar      1 <0>         0.0179
     21 H1         -3.4047    0.6895    1.5911 H         1 <0>         0.0427
     22 H2         -4.4097   -0.1224    0.4164 H         1 <0>         0.0427
     23 H3         -3.5721   -1.6146   -1.2526 H         1 <0>         0.0621
     24 H4          0.4786   -2.9664   -0.8889 H         1 <0>         0.0625
     25 H5         -1.7685   -3.1654   -1.9071 H         1 <0>         0.0618
     26 H6         -1.5046    1.3209    1.8827 H         1 <0>         0.1423
     27 H7          0.0897    0.6777    2.1102 H         1 <0>         0.1423
     28 H8          1.1046    0.3491   -1.3050 H         1 <0>         0.0625
     29 H9          3.8073   -0.8908    1.8466 H         1 <0>         0.0625
     30 H10         2.8627    1.7126   -2.2720 H         1 <0>         0.0629
     31 H11         5.5667    0.4876    0.8605 H         1 <0>         0.0629
     32 H12        -4.6102    3.2502   -0.5346 H         1 <0>         0.2951
@<TRIPOS>BOND
     1    1   20 1
     2    2   11 2
     3    3   17 1
     4    3   32 1
     5    4   17 2
     6    5    8 1
     7    5   26 1
     8    5   27 1
     9    6    8 ar
    10    6    9 1
    11    6   10 ar
    12    7    8 ar
    13    7   11 1
    14    7   12 ar
    15    9   17 1
    16    9   21 1
    17    9   22 1
    18   10   14 ar
    19   10   23 1
    20   11   13 1
    21   12   14 ar
    22   12   24 1
    23   13   15 ar
    24   13   16 ar
    25   14   25 1
    26   15   18 ar
    27   15   28 1
    28   16   19 ar
    29   16   29 1
    30   18   20 ar
    31   18   30 1
    32   19   20 ar
    33   19   31 1
