@<TRIPOS>MOLECULE
DB00356
   15    16     0     0     0
SMALL
USER_CHARGES

@<TRIPOS>ATOM
      1 Cl1         3.3175    1.6115    0.0006 Cl        1 <0>        -0.0835
      2 O1         -1.6707   -1.4507    0.0000 O.3       1 <0>        -0.4076
      3 O2         -3.7557   -0.4498    0.0004 O.2       1 <0>        -0.2229
      4 N1         -1.8167    0.8429    0.0001 N.am      1 <0>        -0.2880
      5 C1         -0.4859    0.5197   -0.0005 C.ar      1 <0>         0.0887
      6 C2         -0.4181   -0.8570   -0.0004 C.ar      1 <0>         0.1569
      7 C3          0.6305    1.3246   -0.0004 C.ar      1 <0>        -0.0163
      8 C4          0.7925   -1.5156   -0.0003 C.ar      1 <0>        -0.0157
      9 C5          1.8690    0.6784   -0.0002 C.ar      1 <0>         0.0431
     10 C6         -2.5358   -0.3415    0.0002 C.2       1 <0>         0.4186
     11 C7          1.9496   -0.7295    0.0001 C.ar      1 <0>        -0.0398
     12 H1         -2.1950    1.7819    0.0002 H         1 <0>         0.1721
     13 H2          0.5470    2.4055   -0.0003 H         1 <0>         0.0654
     14 H3          0.8526   -2.5976   -0.0001 H         1 <0>         0.0655
     15 H4          2.9192   -1.2227    0.0005 H         1 <0>         0.0633
@<TRIPOS>BOND
     1    1    9 1
     2    2    6 1
     3    2   10 1
     4    3   10 2
     5    4    5 1
     6    4   10 am
     7    4   12 1
     8    5    6 ar
     9    5    7 ar
    10    6    8 ar
    11    7    9 ar
    12    7   13 1
    13    8   11 ar
    14    8   14 1
    15    9   11 ar
    16   11   15 1
