@<TRIPOS>MOLECULE
DB00686
   53    54     0     0     0
SMALL
USER_CHARGES

@<TRIPOS>ATOM
      1 S1          4.9245    1.4523    0.7600 S.o2      1 <0>         0.2079
      2 S2         -4.0201    2.8102   -0.2015 S.o2      1 <0>         0.2080
      3 S3         -2.8441   -2.1645   -2.0651 S.o2      1 <0>         0.2079
      4 S4          2.2732   -2.2227    1.9319 S.o2      1 <0>         0.2080
      5 O1          0.1181   -0.0233    0.2998 O.3       1 <0>        -0.3403
      6 O2         -1.4743   -0.0790    2.0542 O.3       1 <0>        -0.3460
      7 O3          1.6341   -0.4947   -2.1328 O.3       1 <0>        -0.3461
      8 O4          3.3909    1.5632    0.2153 O.3       1 <0>        -0.2069
      9 O5         -2.8094    2.1001    0.6307 O.3       1 <0>        -0.2046
     10 O6         -2.1252   -0.8712   -1.3785 O.3       1 <0>        -0.2070
     11 O7          2.3117   -1.9232    0.3282 O.3       1 <0>        -0.2046
     12 O8         -4.3129   -0.2399    1.4588 O.3       1 <0>        -0.3868
     13 O9          3.9345    0.0659   -2.2404 O.3       1 <0>        -0.3648
     14 O10         5.5501    2.9267    0.4496 O.3       1 <0>        -0.2311
     15 O11        -4.5671    3.9578    0.8208 O.3       1 <0>        -0.2311
     16 O12        -1.6269   -2.9030   -2.8616 O.3       1 <0>        -0.2311
     17 O13         1.4961   -3.6532    2.0369 O.3       1 <0>        -0.2311
     18 O14         5.6449    0.4835   -0.0450 O.2       1 <0>        -0.1181
     19 O15         4.8611    1.2992    2.2016 O.2       1 <0>        -0.1181
     20 O16        -5.0862    1.8464   -0.4019 O.2       1 <0>        -0.1181
     21 O17        -3.4252    3.4862   -1.3394 O.2       1 <0>        -0.1181
     22 O18        -3.2626   -3.0467   -0.9916 O.2       1 <0>        -0.1181
     23 O19        -3.8073   -1.7055   -3.0487 O.2       1 <0>        -0.1181
     24 O20         1.4506   -1.2194    2.5817 O.2       1 <0>        -0.1181
     25 O21         3.6414   -2.4358    2.3655 O.2       1 <0>        -0.1181
     26 C1          1.1324    0.8628   -0.1675 C.3       1 <0>         0.1162
     27 C2          2.4831    0.4882    0.4464 C.3       1 <0>         0.1511
     28 C3         -1.9932    1.1217   -0.0106 C.3       1 <0>         0.1710
     29 C4         -0.9119    0.6835    0.9830 C.3       1 <0>         0.1907
     30 C5         -2.8653   -0.0517   -0.4764 C.3       1 <0>         0.1507
     31 C6          3.0462   -0.8031   -0.1617 C.3       1 <0>         0.1708
     32 C7         -3.3196   -0.9222    0.6972 C.3       1 <0>         0.1097
     33 C8          1.1695    0.7810   -1.6904 C.3       1 <0>         0.0796
     34 C9          2.9569   -0.8120   -1.6915 C.3       1 <0>         0.1877
     35 C10        -2.1569   -1.2580    1.6259 C.3       1 <0>         0.0793
     36 H1          0.9093    1.9093    0.0804 H         1 <0>         0.0648
     37 H2          2.3742    0.4471    1.5262 H         1 <0>         0.0676
     38 H3         -1.5228    1.5930   -0.8790 H         1 <0>         0.0700
     39 H4         -0.5002    1.5642    1.4913 H         1 <0>         0.0938
     40 H5         -3.7274    0.2790   -1.0475 H         1 <0>         0.0676
     41 H6          4.0731   -1.0053    0.1275 H         1 <0>         0.0700
     42 H7         -3.8560   -1.8199    0.4435 H         1 <0>         0.0644
     43 H8          1.8042    1.5658   -2.1169 H         1 <0>         0.0587
     44 H9          0.1703    0.9072   -2.1152 H         1 <0>         0.0587
     45 H10         3.1726   -1.8163   -2.0703 H         1 <0>         0.0936
     46 H11        -2.5229   -1.7523    2.5321 H         1 <0>         0.0587
     47 H12        -1.4434   -1.9369    1.1457 H         1 <0>         0.0587
     48 H13        -4.5660   -0.8098    2.2050 H         1 <0>         0.2100
     49 H14         3.9664    0.8735   -1.7039 H         1 <0>         0.2126
     50 H15         5.3827    3.2724   -0.4585 H         1 <0>         0.2469
     51 H16        -4.7274    3.6563    1.7459 H         1 <0>         0.2469
     52 H17        -1.0586   -2.3092   -3.4064 H         1 <0>         0.2469
     53 H18         0.6608   -3.7178    1.5170 H         1 <0>         0.2469
@<TRIPOS>BOND
     1    1    8 1
     2    1   14 1
     3    1   18 2
     4    1   19 2
     5    2    9 1
     6    2   15 1
     7    2   20 2
     8    2   21 2
     9    3   10 1
    10    3   16 1
    11    3   22 2
    12    3   23 2
    13    4   11 1
    14    4   17 1
    15    4   24 2
    16    4   25 2
    17    5   26 1
    18    5   29 1
    19    6   29 1
    20    6   35 1
    21    7   33 1
    22    7   34 1
    23    8   27 1
    24    9   28 1
    25   10   30 1
    26   11   31 1
    27   12   32 1
    28   12   48 1
    29   13   34 1
    30   13   49 1
    31   14   50 1
    32   15   51 1
    33   16   52 1
    34   17   53 1
    35   26   27 1
    36   26   33 1
    37   26   36 1
    38   27   31 1
    39   27   37 1
    40   28   29 1
    41   28   30 1
    42   28   38 1
    43   29   39 1
    44   30   32 1
    45   30   40 1
    46   31   34 1
    47   31   41 1
    48   32   35 1
    49   32   42 1
    50   33   43 1
    51   33   44 1
    52   34   45 1
    53   35   46 1
    54   35   47 1
