@<TRIPOS>MOLECULE
DB00549
   74    78     0     0     0
SMALL
USER_CHARGES

@<TRIPOS>ATOM
      1 S1          6.6318   -0.5790   -1.3359 S.o2      1 <0>         0.0749
      2 O1         -5.4597   -1.8630   -0.3843 O.3       1 <0>        -0.4469
      3 O2         -3.6401   -1.1138    0.7812 O.2       1 <0>        -0.2261
      4 O3          2.2638    3.6593    1.3995 O.3       1 <0>        -0.4948
      5 O4          3.6129   -1.1310   -1.8090 O.2       1 <0>        -0.2686
      6 O5          6.5479   -0.4699   -2.7796 O.2       1 <0>        -0.1499
      7 O6          7.7999   -0.0931   -0.6269 O.2       1 <0>        -0.1499
      8 N1         -1.8057    4.8914   -0.4797 N.pl3     1 <0>        -0.3494
      9 N2         -4.7555    0.2404   -0.7750 N.am      1 <0>        -0.2511
     10 N3          5.2226    0.1021   -0.6358 N.am      1 <0>        -0.1815
     11 C1         -5.3563   -3.1150    0.2821 C.3       1 <0>         0.1047
     12 C2         -6.2597   -3.1403    1.5059 C.3       1 <0>        -0.0156
     13 C3         -5.9427   -4.2070   -0.5995 C.3       1 <0>        -0.0156
     14 C4         -7.6560   -3.3768    0.9358 C.3       1 <0>        -0.0496
     15 C5         -7.4533   -4.0893   -0.4017 C.3       1 <0>        -0.0496
     16 C6         -4.5251   -0.9217   -0.0437 C.2       1 <0>         0.4048
     17 C7         -2.2376    2.7911    0.1364 C.2       1 <0>         0.0051
     18 C8         -1.1065    3.2641    0.8584 C.2       1 <0>        -0.0177
     19 C9         -2.6569    3.8312   -0.6958 C.2       1 <0>         0.0492
     20 C10        -4.0475    1.4430   -0.7443 C.2       1 <0>         0.0371
     21 C11        -0.3244    2.5104    1.8593 C.3       1 <0>         0.0030
     22 C12        -2.9472    1.5740    0.1107 C.2       1 <0>        -0.0309
     23 C13        -0.8651    4.5581    0.4579 C.2       1 <0>         0.0089
     24 C14        -3.7549    3.7147   -1.5557 C.2       1 <0>        -0.0359
     25 C15        -4.4434    2.4982   -1.5639 C.2       1 <0>        -0.0384
     26 C16         0.7855    1.7935    1.1181 C.ar      1 <0>        -0.0013
     27 C17        -1.8801    6.1776   -1.1385 C.3       1 <0>         0.0119
     28 C18         2.0247    2.4043    0.9258 C.ar      1 <0>         0.1243
     29 C19         0.5581    0.5079    0.6272 C.ar      1 <0>        -0.0541
     30 C20         3.0363    1.7292    0.2428 C.ar      1 <0>        -0.0075
     31 C21         2.8089    0.4437   -0.2483 C.ar      1 <0>         0.0417
     32 C22         1.5697   -0.1671   -0.0561 C.ar      1 <0>        -0.0491
     33 C23         3.8626   -0.2595   -0.9627 C.2       1 <0>         0.2632
     34 C24         6.4407   -2.2807   -0.8994 C.ar      1 <0>         0.1115
     35 C25         6.4711   -2.6928    0.4329 C.ar      1 <0>        -0.0238
     36 C26         3.5581    4.2073    1.1583 C.3       1 <0>         0.0788
     37 C27         6.2552   -3.2184   -1.9154 C.ar      1 <0>        -0.0348
     38 C28         6.3160   -4.0423    0.7493 C.ar      1 <0>        -0.0570
     39 C29         6.6672   -1.7144    1.5444 C.3       1 <0>        -0.0378
     40 C30         6.1001   -4.5680   -1.5989 C.ar      1 <0>        -0.0599
     41 C31         6.1307   -4.9800   -0.2666 C.ar      1 <0>        -0.0614
     42 H1         -4.3158   -3.3551    0.5282 H         1 <0>         0.0734
     43 H2         -6.2224   -2.2153    2.0892 H         1 <0>         0.0301
     44 H3         -5.9852   -3.9768    2.1592 H         1 <0>         0.0301
     45 H4         -5.6072   -5.1919   -0.2537 H         1 <0>         0.0301
     46 H5         -5.6718   -4.0965   -1.6541 H         1 <0>         0.0301
     47 H6         -8.2738   -3.9644    1.6223 H         1 <0>         0.0266
     48 H7         -8.1670   -2.4207    0.7719 H         1 <0>         0.0266
     49 H8         -7.9013   -3.4990   -1.2093 H         1 <0>         0.0266
     50 H9         -7.9310   -5.0743   -0.4135 H         1 <0>         0.0266
     51 H10        -0.9500    1.7871    2.3964 H         1 <0>         0.0363
     52 H11         0.0859    3.1741    2.6298 H         1 <0>         0.0363
     53 H12        -5.5448    0.2061   -1.4158 H         1 <0>         0.1582
     54 H13        -2.6062    0.7979    0.7772 H         1 <0>         0.0643
     55 H14        -0.1058    5.2654    0.7642 H         1 <0>         0.0812
     56 H15        -4.0681    4.5324   -2.1961 H         1 <0>         0.0639
     57 H16        -5.2998    2.3892   -2.2261 H         1 <0>         0.0637
     58 H17        -1.0785    6.8246   -0.7734 H         1 <0>         0.0456
     59 H18        -2.8504    6.6261   -0.9105 H         1 <0>         0.0456
     60 H19        -1.7680    6.0209   -2.2144 H         1 <0>         0.0456
     61 H20        -0.3938    0.0088    0.7798 H         1 <0>         0.0622
     62 H21         3.9948    2.1905    0.0408 H         1 <0>         0.0662
     63 H22         1.3757   -1.1707   -0.4254 H         1 <0>         0.0625
     64 H23         5.3898    0.7152    0.1715 H         1 <0>         0.1769
     65 H24         4.3441    3.6244    1.6507 H         1 <0>         0.0660
     66 H25         3.7451    4.3464    0.0880 H         1 <0>         0.0660
     67 H26         3.5737    5.2036    1.6124 H         1 <0>         0.0660
     68 H27         6.2259   -2.9293   -2.9616 H         1 <0>         0.0637
     69 H28         6.3373   -4.3821    1.7814 H         1 <0>         0.0621
     70 H29         7.6570   -1.2528    1.5037 H         1 <0>         0.0278
     71 H30         6.6155   -2.2186    2.5176 H         1 <0>         0.0278
     72 H31         5.8851   -0.9542    1.5701 H         1 <0>         0.0278
     73 H32         5.9552   -5.2984   -2.3896 H         1 <0>         0.0618
     74 H33         6.0099   -6.0310   -0.0205 H         1 <0>         0.0618
@<TRIPOS>BOND
     1    1    6 2
     2    1    7 2
     3    1   10 1
     4    1   34 1
     5    2   11 1
     6    2   16 1
     7    3   16 2
     8    4   28 1
     9    4   36 1
    10    5   33 2
    11    8   19 1
    12    8   23 2
    13    8   27 1
    14    9   16 am
    15    9   20 1
    16    9   53 1
    17   10   33 am
    18   10   64 1
    19   11   12 1
    20   11   13 1
    21   11   42 1
    22   12   14 1
    23   12   43 1
    24   12   44 1
    25   13   15 1
    26   13   45 1
    27   13   46 1
    28   14   15 1
    29   14   47 1
    30   14   48 1
    31   15   49 1
    32   15   50 1
    33   17   18 2
    34   17   19 1
    35   17   22 2
    36   18   21 1
    37   18   23 1
    38   19   24 2
    39   20   22 1
    40   20   25 2
    41   21   26 1
    42   21   51 1
    43   21   52 1
    44   22   54 1
    45   23   55 1
    46   24   25 1
    47   24   56 1
    48   25   57 1
    49   26   28 ar
    50   26   29 ar
    51   27   58 1
    52   27   59 1
    53   27   60 1
    54   28   30 ar
    55   29   32 ar
    56   29   61 1
    57   30   31 ar
    58   30   62 1
    59   31   32 ar
    60   31   33 1
    61   32   63 1
    62   34   35 ar
    63   34   37 ar
    64   35   38 ar
    65   35   39 1
    66   36   65 1
    67   36   66 1
    68   36   67 1
    69   37   40 ar
    70   37   68 1
    71   38   41 ar
    72   38   69 1
    73   39   70 1
    74   39   71 1
    75   39   72 1
    76   40   41 ar
    77   40   73 1
    78   41   74 1
