@<TRIPOS>MOLECULE
DB00156
   17    16     0     0     0
SMALL
USER_CHARGES

@<TRIPOS>ATOM
      1 O1         -0.4860   -1.1628   -1.2973 O.3       1 <0>        -0.3861
      2 O2          2.9689    0.0473    0.0751 O.co2     1 <0>        -0.5441
      3 O3          1.8757   -1.9092    0.5000 O.co2     1 <0>        -0.5441
      4 N1          0.6015    1.3840   -0.2936 N.4       1 <0>         0.2268
      5 C1          0.6098    0.0881    0.4584 C.3       1 <0>         0.0421
      6 C2         -0.6326   -0.7196    0.0514 C.3       1 <0>         0.1002
      7 C3         -1.9388    0.0597    0.1747 C.3       1 <0>        -0.0333
      8 C4          1.9531   -0.6581    0.3250 C.2       1 <0>         0.0919
      9 H1          0.5202    0.3786    1.5124 H         1 <0>         0.0940
     10 H2         -0.7110   -1.6146    0.6801 H         1 <0>         0.0651
     11 H3         -0.1982    1.9776   -0.0379 H         1 <0>         0.2001
     12 H4          0.5692    1.2302   -1.3103 H         1 <0>         0.2001
     13 H5          1.4503    1.9298   -0.0935 H         1 <0>         0.2001
     14 H6         -2.7868   -0.6110   -0.0048 H         1 <0>         0.0257
     15 H7         -2.0189    0.8489   -0.5801 H         1 <0>         0.0257
     16 H8         -2.0524    0.4962    1.1714 H         1 <0>         0.0257
     17 H9          0.2762   -1.7651   -1.3313 H         1 <0>         0.2100
@<TRIPOS>BOND
     1    1    6 1
     2    1   17 1
     3    2    8 2
     4    3    8 1
     5    4    5 1
     6    4   11 1
     7    4   12 1
     8    4   13 1
     9    5    6 1
    10    5    8 1
    11    5    9 1
    12    6    7 1
    13    6   10 1
    14    7   14 1
    15    7   15 1
    16    7   16 1
