@<TRIPOS>MOLECULE
DB00661
   71    72     0     0     0
SMALL
USER_CHARGES

@<TRIPOS>ATOM
      1 O1         -3.4293    3.5593   -1.9551 O.3       1 <0>        -0.4914
      2 O2         -1.2270    4.3745   -0.4676 O.3       1 <0>        -0.4915
      3 O3          6.7820   -0.3682   -0.1743 O.3       1 <0>        -0.4914
      4 O4          6.1151    2.2894    0.2940 O.3       1 <0>        -0.4915
      5 N1          0.4265   -2.9790   -0.6666 N.3       1 <0>        -0.3050
      6 N2         -5.5008   -1.3408   -1.2776 N.1       1 <0>        -0.1956
      7 C1         -3.4101   -0.8370    0.2753 C.3       1 <0>         0.0846
      8 C2         -3.8653   -0.9937    1.7884 C.3       1 <0>        -0.0242
      9 C3         -2.3218   -1.9156   -0.0718 C.3       1 <0>        -0.0290
     10 C4         -1.5514   -1.6708   -1.3862 C.3       1 <0>        -0.0385
     11 C5         -2.8199    0.5783    0.0709 C.ar      1 <0>        -0.0236
     12 C6         -0.5689   -2.7985   -1.7162 C.3       1 <0>        -0.0013
     13 C7         -4.3414   -2.4083    2.1623 C.3       1 <0>        -0.0609
     14 C8         -4.9571    0.0116    2.2014 C.3       1 <0>        -0.0609
     15 C9         -4.5863   -1.1110   -0.6003 C.1       1 <0>         0.0742
     16 C10        -3.3929    1.4453   -0.8596 C.ar      1 <0>        -0.0116
     17 C11        -1.7149    0.9874    0.8173 C.ar      1 <0>        -0.0534
     18 C12         1.4686   -1.9553   -0.7625 C.3       1 <0>         0.0026
     19 C13        -2.8608    2.7216   -1.0436 C.ar      1 <0>         0.1618
     20 C14         1.0196   -4.3154   -0.7427 C.3       1 <0>        -0.0128
     21 C15        -1.1827    2.2636    0.6331 C.ar      1 <0>        -0.0160
     22 C16         2.1428   -1.7316    0.5917 C.3       1 <0>        -0.0148
     23 C17        -1.7557    3.1308   -0.2973 C.ar      1 <0>         0.1615
     24 C18         3.2037   -0.6629    0.5118 C.ar      1 <0>        -0.0425
     25 C19         4.5194   -1.0077    0.2028 C.ar      1 <0>        -0.0131
     26 C20         2.8690    0.6708    0.7468 C.ar      1 <0>        -0.0548
     27 C21         5.5006   -0.0190    0.1285 C.ar      1 <0>         0.1617
     28 C22        -4.5555    3.0641   -2.6764 C.3       1 <0>         0.0790
     29 C23         3.8503    1.6594    0.6728 C.ar      1 <0>        -0.0160
     30 C24         5.1660    1.3147    0.3636 C.ar      1 <0>         0.1615
     31 C25        -0.0977    4.7143    0.3345 C.3       1 <0>         0.0790
     32 C26         7.0404   -1.7525   -0.4004 C.3       1 <0>         0.0790
     33 C27         5.6901    3.6271    0.5478 C.3       1 <0>         0.0790
     34 H1         -3.0007   -0.7953    2.4357 H         1 <0>         0.0314
     35 H2         -1.5947   -1.9560    0.7498 H         1 <0>         0.0284
     36 H3         -2.7833   -2.9109   -0.1235 H         1 <0>         0.0284
     37 H4         -1.0258   -0.7128   -1.3639 H         1 <0>         0.0278
     38 H5         -2.2699   -1.6026   -2.2125 H         1 <0>         0.0278
     39 H6         -0.0985   -2.6163   -2.6914 H         1 <0>         0.0426
     40 H7         -1.1648   -3.7140   -1.8313 H         1 <0>         0.0426
     41 H8         -3.5483   -3.1485    2.0228 H         1 <0>         0.0233
     42 H9         -4.6301   -2.4493    3.2188 H         1 <0>         0.0233
     43 H10        -5.2097   -2.7163    1.5715 H         1 <0>         0.0233
     44 H11        -5.1892   -0.0936    3.2673 H         1 <0>         0.0233
     45 H12        -5.8871   -0.1471    1.6461 H         1 <0>         0.0233
     46 H13        -4.6374    1.0462    2.0462 H         1 <0>         0.0233
     47 H14        -4.2479    1.1109   -1.4282 H         1 <0>         0.0658
     48 H15        -1.2435    0.3272    1.5395 H         1 <0>         0.0622
     49 H16         1.0503   -0.9905   -1.0728 H         1 <0>         0.0430
     50 H17         2.2089   -2.2106   -1.5333 H         1 <0>         0.0430
     51 H18         0.2463   -5.0829   -0.6218 H         1 <0>         0.0391
     52 H19         1.7395   -4.4846    0.0641 H         1 <0>         0.0391
     53 H20         1.5254   -4.4900   -1.6994 H         1 <0>         0.0391
     54 H21         1.3945   -1.4430    1.3422 H         1 <0>         0.0326
     55 H22         2.6005   -2.6534    0.9700 H         1 <0>         0.0326
     56 H23        -0.3233    2.5126    1.2458 H         1 <0>         0.0655
     57 H24         4.7188   -2.0596    0.0275 H         1 <0>         0.0658
     58 H25         1.8470    0.9504    0.9870 H         1 <0>         0.0621
     59 H26        -4.8772    3.8614   -3.3549 H         1 <0>         0.0660
     60 H27        -5.4018    2.8552   -2.0130 H         1 <0>         0.0660
     61 H28        -4.2901    2.2057   -3.3031 H         1 <0>         0.0660
     62 H29         3.5173    2.6733    0.8666 H         1 <0>         0.0655
     63 H30        -0.3477    4.7222    1.4009 H         1 <0>         0.0660
     64 H31         0.7626    4.0732    0.1127 H         1 <0>         0.0660
     65 H32         0.1910    5.7364    0.0682 H         1 <0>         0.0660
     66 H33         6.8528   -2.3505    0.4980 H         1 <0>         0.0660
     67 H34         6.4957   -2.1278   -1.2736 H         1 <0>         0.0660
     68 H35         8.1075   -1.8479   -0.6275 H         1 <0>         0.0660
     69 H36         6.5717    4.2692    0.4501 H         1 <0>         0.0660
     70 H37         5.3223    3.7462    1.5726 H         1 <0>         0.0660
     71 H38         4.9642    3.9684   -0.1981 H         1 <0>         0.0660
@<TRIPOS>BOND
     1    1   19 1
     2    1   28 1
     3    2   23 1
     4    2   31 1
     5    3   27 1
     6    3   32 1
     7    4   30 1
     8    4   33 1
     9    5   12 1
    10    5   18 1
    11    5   20 1
    12    6   15 3
    13    7    8 1
    14    7    9 1
    15    7   11 1
    16    7   15 1
    17    8   13 1
    18    8   14 1
    19    8   34 1
    20    9   10 1
    21    9   35 1
    22    9   36 1
    23   10   12 1
    24   10   37 1
    25   10   38 1
    26   11   16 ar
    27   11   17 ar
    28   12   39 1
    29   12   40 1
    30   13   41 1
    31   13   42 1
    32   13   43 1
    33   14   44 1
    34   14   45 1
    35   14   46 1
    36   16   19 ar
    37   16   47 1
    38   17   21 ar
    39   17   48 1
    40   18   22 1
    41   18   49 1
    42   18   50 1
    43   19   23 ar
    44   20   51 1
    45   20   52 1
    46   20   53 1
    47   21   23 ar
    48   21   56 1
    49   22   24 1
    50   22   54 1
    51   22   55 1
    52   24   25 ar
    53   24   26 ar
    54   25   27 ar
    55   25   57 1
    56   26   29 ar
    57   26   58 1
    58   27   30 ar
    59   28   59 1
    60   28   60 1
    61   28   61 1
    62   29   30 ar
    63   29   62 1
    64   31   63 1
    65   31   64 1
    66   31   65 1
    67   32   66 1
    68   32   67 1
    69   32   68 1
    70   33   69 1
    71   33   70 1
    72   33   71 1
