@<TRIPOS>MOLECULE
DB00139
   14    13     0     0     0
SMALL
USER_CHARGES

@<TRIPOS>ATOM
      1 O1          2.9754    0.5598   -0.0059 O.3       1 <0>        -0.4806
      2 O2         -2.9730   -0.5681   -0.0139 O.3       1 <0>        -0.4806
      3 O3          1.9899   -1.4879    0.0069 O.2       1 <0>        -0.2510
      4 O4         -2.0001    1.4862    0.0169 O.2       1 <0>        -0.2510
      5 C1          0.5920    0.4831   -0.0016 C.3       1 <0>         0.0548
      6 C2         -0.5893   -0.4744    0.0059 C.3       1 <0>         0.0548
      7 C3          1.9006   -0.2670    0.0075 C.2       1 <0>         0.3052
      8 C4         -1.9034    0.2659   -0.0002 C.2       1 <0>         0.3052
      9 H1          0.5614    1.1294    0.8830 H         1 <0>         0.0383
     10 H2          0.5628    1.1127   -0.8981 H         1 <0>         0.0383
     11 H3         -0.5583   -1.1065    0.9008 H         1 <0>         0.0383
     12 H4         -0.5573   -1.1196   -0.8795 H         1 <0>         0.0383
     13 H5          3.8206    0.0618   -0.0098 H         1 <0>         0.2951
     14 H6         -3.8213   -0.0755   -0.0120 H         1 <0>         0.2951
@<TRIPOS>BOND
     1    1    7 1
     2    1   13 1
     3    2    8 1
     4    2   14 1
     5    3    7 2
     6    4    8 2
     7    5    6 1
     8    5    7 1
     9    5    9 1
    10    5   10 1
    11    6    8 1
    12    6   11 1
    13    6   12 1
