@<TRIPOS>MOLECULE
DB00248
   70    73     0     0     0
SMALL
USER_CHARGES

@<TRIPOS>ATOM
      1 O1          1.9819   -1.8862   -0.3773 O.2       1 <0>        -0.2748
      2 O2          2.0630    2.3982   -2.2680 O.2       1 <0>        -0.2522
      3 N1         -2.1221   -2.0641   -0.5007 N.3       1 <0>        -0.2942
      4 N2         -5.8013    1.7252    2.3930 N.pl3     1 <0>        -0.3604
      5 N3          2.1888    0.2876   -1.2348 N.am      1 <0>        -0.2257
      6 N4          0.9508    0.6329   -3.2299 N.am      1 <0>        -0.2992
      7 N5          5.5049   -0.2191    1.5709 N.3       1 <0>        -0.3083
      8 C1         -2.0835    0.4197   -0.0949 C.3       1 <0>         0.0014
      9 C2         -2.6553   -0.9901    0.3739 C.3       1 <0>         0.0216
     10 C3         -0.5496    0.3937   -0.0952 C.3       1 <0>        -0.0324
     11 C4         -0.0316   -0.7823   -0.9179 C.3       1 <0>         0.0495
     12 C5         -4.2310   -1.0009    0.4435 C.3       1 <0>        -0.0094
     13 C6         -0.6501   -2.1001   -0.4528 C.3       1 <0>         0.0106
     14 C7         -2.6642    1.5510    0.7368 C.2       1 <0>        -0.0334
     15 C8         -3.9356    1.3420    1.2857 C.2       1 <0>         0.0064
     16 C9         -4.7324    0.1838    1.1965 C.2       1 <0>        -0.0206
     17 C10        -2.6412   -3.3909   -0.1555 C.3       1 <0>         0.0172
     18 C11         1.4638   -0.8555   -0.8166 C.2       1 <0>         0.2273
     19 C12        -4.6022    2.2981    2.0285 C.2       1 <0>         0.0470
     20 C13        -2.1010    2.8151    0.9550 C.2       1 <0>        -0.0576
     21 C14        -5.8910    0.4431    1.8904 C.2       1 <0>         0.0060
     22 C15        -4.0404    3.5508    2.2707 C.2       1 <0>        -0.0378
     23 C16        -2.7744    3.7877    1.7121 C.2       1 <0>        -0.0595
     24 C17        -2.1554   -4.4387   -1.1090 C.2       1 <0>        -0.0772
     25 C18         3.4626    0.5152   -0.5431 C.3       1 <0>         0.0250
     26 C19         1.7703    1.2000   -2.2515 C.2       1 <0>         0.3085
     27 C20         3.2863    0.7013    0.9627 C.3       1 <0>        -0.0238
     28 C21        -1.4167   -5.4941   -0.7478 C.2       1 <0>        -0.1014
     29 C22         4.5942    0.9079    1.7321 C.3       1 <0>        -0.0003
     30 C23         0.3981    1.4095   -4.3162 C.3       1 <0>         0.0102
     31 C24         4.8966   -1.4502    2.0787 C.3       1 <0>        -0.0130
     32 C25         6.7727    0.0402    2.2557 C.3       1 <0>        -0.0130
     33 C26         0.8426    2.8551   -4.2037 C.3       1 <0>        -0.0495
     34 H1         -2.4223    0.5935   -1.1274 H         1 <0>         0.0364
     35 H2         -2.2970   -1.1635    1.4018 H         1 <0>         0.0472
     36 H3         -0.1749    0.3265    0.9358 H         1 <0>         0.0279
     37 H4         -0.1697    1.3384   -0.4954 H         1 <0>         0.0279
     38 H5         -0.3688   -0.6725   -1.9462 H         1 <0>         0.0407
     39 H6         -4.5888   -1.9020    0.9533 H         1 <0>         0.0329
     40 H7         -4.6510   -0.9877   -0.5696 H         1 <0>         0.0329
     41 H8         -0.3138   -2.3463    0.5649 H         1 <0>         0.0434
     42 H9         -0.2538   -2.8768   -1.1173 H         1 <0>         0.0434
     43 H10        -2.3953   -3.6521    0.8822 H         1 <0>         0.0470
     44 H11        -3.7321   -3.4150   -0.2446 H         1 <0>         0.0470
     45 H12        -1.1311    3.0703    0.5375 H         1 <0>         0.0621
     46 H13        -6.7699   -0.1569    2.0792 H         1 <0>         0.0810
     47 H14        -6.5154    2.1783    2.9461 H         1 <0>         0.1653
     48 H15        -4.5537    4.3089    2.8508 H         1 <0>         0.0638
     49 H16        -2.3036    4.7563    1.8660 H         1 <0>         0.0618
     50 H17        -2.4309   -4.3325   -2.1556 H         1 <0>         0.0579
     51 H18         4.0920   -0.3584   -0.7478 H         1 <0>         0.0470
     52 H19         3.9654    1.3873   -0.9756 H         1 <0>         0.0470
     53 H20         2.7050   -0.1124    1.4088 H         1 <0>         0.0293
     54 H21         2.6659    1.5949    1.1189 H         1 <0>         0.0293
     55 H22        -1.0987   -6.2209   -1.4872 H         1 <0>         0.0532
     56 H23        -1.1163   -5.6500    0.2824 H         1 <0>         0.0532
     57 H24         5.0695    1.8213    1.3517 H         1 <0>         0.0427
     58 H25         4.3638    1.0868    2.7906 H         1 <0>         0.0427
     59 H26         0.9242   -0.3768   -3.3226 H         1 <0>         0.1502
     60 H27        -0.6913    1.3218   -4.2699 H         1 <0>         0.0460
     61 H28         0.7427    0.9657   -5.2552 H         1 <0>         0.0460
     62 H29         4.0667   -1.7876    1.4520 H         1 <0>         0.0391
     63 H30         4.5451   -1.3464    3.1117 H         1 <0>         0.0391
     64 H31         5.6240   -2.2708    2.0550 H         1 <0>         0.0391
     65 H32         6.6404    0.1695    3.3361 H         1 <0>         0.0391
     66 H33         7.2489    0.9424    1.8555 H         1 <0>         0.0391
     67 H34         7.4759   -0.7835    2.0896 H         1 <0>         0.0391
     68 H35         0.3932    3.3913   -5.0516 H         1 <0>         0.0245
     69 H36         1.9190    2.9992   -4.3484 H         1 <0>         0.0245
     70 H37         0.4390    3.3738   -3.3270 H         1 <0>         0.0245
@<TRIPOS>BOND
     1    1   18 2
     2    2   26 2
     3    3    9 1
     4    3   13 1
     5    3   17 1
     6    4   19 1
     7    4   21 2
     8    4   47 1
     9    5   18 am
    10    5   25 1
    11    5   26 am
    12    6   26 am
    13    6   30 1
    14    6   59 1
    15    7   29 1
    16    7   31 1
    17    7   32 1
    18    8    9 1
    19    8   10 1
    20    8   14 1
    21    8   34 1
    22    9   12 1
    23    9   35 1
    24   10   11 1
    25   10   36 1
    26   10   37 1
    27   11   13 1
    28   11   18 1
    29   11   38 1
    30   12   16 1
    31   12   39 1
    32   12   40 1
    33   13   41 1
    34   13   42 1
    35   14   15 1
    36   14   20 2
    37   15   16 2
    38   15   19 2
    39   16   21 1
    40   17   24 1
    41   17   43 1
    42   17   44 1
    43   19   22 1
    44   20   23 1
    45   20   45 1
    46   21   46 1
    47   22   23 2
    48   22   48 1
    49   23   49 1
    50   24   28 2
    51   24   50 1
    52   25   27 1
    53   25   51 1
    54   25   52 1
    55   27   29 1
    56   27   53 1
    57   27   54 1
    58   28   55 1
    59   28   56 1
    60   29   57 1
    61   29   58 1
    62   30   33 1
    63   30   60 1
    64   30   61 1
    65   31   62 1
    66   31   63 1
    67   31   64 1
    68   32   65 1
    69   32   66 1
    70   32   67 1
    71   33   68 1
    72   33   69 1
    73   33   70 1
