@<TRIPOS>MOLECULE
DB00525
   39    41     0     0     0
SMALL
USER_CHARGES

@<TRIPOS>ATOM
      1 S1          2.2671   -2.9257   -2.7537 S.2       1 <0>         0.0067
      2 O1          0.6277   -1.0129   -2.0011 O.3       1 <0>        -0.4350
      3 N1          2.2940   -1.5794   -0.3370 N.pl3     1 <0>        -0.2682
      4 C1         -2.5423    0.2389   -0.6316 C.ar      1 <0>        -0.0144
      5 C2         -2.9833   -0.9018    0.0806 C.ar      1 <0>        -0.0177
      6 C3          2.2625   -0.2739    0.2831 C.ar      1 <0>         0.0369
      7 C4         -0.5508   -0.9766   -1.3214 C.ar      1 <0>         0.1313
      8 C5         -1.3237    0.1850   -1.3277 C.ar      1 <0>        -0.0115
      9 C6          2.2804    0.8297   -0.5291 C.ar      1 <0>        -0.0373
     10 C7          2.2498    2.0890    0.0699 C.ar      1 <0>        -0.0487
     11 C8         -2.1928   -2.0627    0.0757 C.ar      1 <0>        -0.0506
     12 C9         -0.9847   -2.0984   -0.6212 C.ar      1 <0>        -0.0187
     13 C10        -3.3330    1.3996   -0.6270 C.ar      1 <0>        -0.0539
     14 C11         2.2156   -0.2093    1.6511 C.ar      1 <0>        -0.0402
     15 C12        -4.2019   -0.8482    0.7766 C.ar      1 <0>        -0.0540
     16 C13         1.7444   -1.8191   -1.6078 C.2       1 <0>         0.2402
     17 C14         2.2019    2.1991    1.4596 C.ar      1 <0>        -0.0587
     18 C15         2.1847    1.0501    2.2501 C.ar      1 <0>        -0.0598
     19 C16         2.8635   -2.6813    0.4489 C.3       1 <0>         0.0090
     20 C17        -4.5411    1.4351    0.0702 C.ar      1 <0>        -0.0612
     21 C18        -4.9746    0.3134    0.7706 C.ar      1 <0>        -0.0612
     22 C19         2.2685    3.3173   -0.7755 C.3       1 <0>        -0.0397
     23 H1         -0.9696    1.0538   -1.8799 H         1 <0>         0.0660
     24 H2          2.3541    0.7641   -1.6100 H         1 <0>         0.0639
     25 H3         -2.5136   -2.9519    0.6145 H         1 <0>         0.0625
     26 H4         -0.4090   -3.0192   -0.6079 H         1 <0>         0.0654
     27 H5         -3.0136    2.2882   -1.1674 H         1 <0>         0.0624
     28 H6          2.1820   -1.0774    2.2992 H         1 <0>         0.0636
     29 H7         -4.5605   -1.7131    1.3308 H         1 <0>         0.0624
     30 H8          2.1745    3.1739    1.9394 H         1 <0>         0.0620
     31 H9          2.1422    1.1364    3.3321 H         1 <0>         0.0618
     32 H10         2.1315   -3.0009    1.1975 H         1 <0>         0.0433
     33 H11         3.7946   -2.3611    0.9272 H         1 <0>         0.0433
     34 H12         3.0874   -3.5531   -0.1693 H         1 <0>         0.0433
     35 H13        -5.1430    2.3392    0.0660 H         1 <0>         0.0618
     36 H14        -5.9151    0.3417    1.3132 H         1 <0>         0.0618
     37 H15         2.9591    3.1998   -1.6173 H         1 <0>         0.0278
     38 H16         1.2658    3.5196   -1.1653 H         1 <0>         0.0278
     39 H17         2.6014    4.1918   -0.2063 H         1 <0>         0.0278
@<TRIPOS>BOND
     1    1   16 2
     2    2    7 1
     3    2   16 1
     4    3    6 1
     5    3   16 1
     6    3   19 1
     7    4    5 ar
     8    4    8 ar
     9    4   13 ar
    10    5   11 ar
    11    5   15 ar
    12    6    9 ar
    13    6   14 ar
    14    7    8 ar
    15    7   12 ar
    16    8   23 1
    17    9   10 ar
    18    9   24 1
    19   10   17 ar
    20   10   22 1
    21   11   12 ar
    22   11   25 1
    23   12   26 1
    24   13   20 ar
    25   13   27 1
    26   14   18 ar
    27   14   28 1
    28   15   21 ar
    29   15   29 1
    30   17   18 ar
    31   17   30 1
    32   18   31 1
    33   19   32 1
    34   19   33 1
    35   19   34 1
    36   20   21 ar
    37   20   35 1
    38   21   36 1
    39   22   37 1
    40   22   38 1
    41   22   39 1
