@<TRIPOS>MOLECULE
DB00836
   67    70     0     0     0
SMALL
USER_CHARGES

@<TRIPOS>ATOM
      1 Cl1        -9.5864   -1.7344    0.6350 Cl        1 <0>        -0.0835
      2 O1         -4.0568    1.8035    0.8749 O.3       1 <0>        -0.3839
      3 O2          4.2012    0.6494   -1.9546 O.2       1 <0>        -0.2743
      4 N1         -1.1508    0.1976   -0.5478 N.3       1 <0>        -0.3021
      5 N2          2.7382   -1.0184   -2.5049 N.am      1 <0>        -0.3066
      6 C1         -3.9804    0.4865    0.3091 C.3       1 <0>         0.0933
      7 C2         -3.5229    0.5858   -1.1646 C.3       1 <0>        -0.0070
      8 C3         -2.9178   -0.3067    1.1021 C.3       1 <0>        -0.0070
      9 C4         -2.0671    1.0450   -1.3174 C.3       1 <0>         0.0018
     10 C5         -1.4918    0.2104    0.8790 C.3       1 <0>         0.0018
     11 C6          0.2337    0.6249   -0.7480 C.3       1 <0>         0.0004
     12 C7          1.1898   -0.3363   -0.0237 C.3       1 <0>        -0.0181
     13 C8          2.7261   -0.0028   -0.1141 C.3       1 <0>         0.0979
     14 C9         -5.4006   -0.0753    0.3929 C.ar      1 <0>        -0.0160
     15 C10         2.8485    1.4612    0.4535 C.ar      1 <0>        -0.0281
     16 C11         3.6179   -0.9600    0.7348 C.ar      1 <0>        -0.0281
     17 C12         3.2690   -0.0895   -1.6036 C.2       1 <0>         0.2300
     18 C13        -6.4408    0.5589   -0.2847 C.ar      1 <0>        -0.0545
     19 C14        -5.6523   -1.2213    1.1457 C.ar      1 <0>        -0.0545
     20 C15         3.0930    1.5871    1.7805 C.ar      1 <0>        -0.0573
     21 C16         4.9542   -0.6999    0.7811 C.ar      1 <0>        -0.0573
     22 C17         2.6989    2.4772   -0.4307 C.ar      1 <0>        -0.0573
     23 C18         3.0016   -1.9934    1.3733 C.ar      1 <0>        -0.0573
     24 C19        -7.7357    0.0460   -0.2095 C.ar      1 <0>        -0.0430
     25 C20        -6.9473   -1.7343    1.2207 C.ar      1 <0>        -0.0430
     26 C21        -7.9890   -1.1006    0.5433 C.ar      1 <0>         0.0410
     27 C22         3.2008    2.8837    2.2834 C.ar      1 <0>        -0.0615
     28 C23         5.7519   -1.5563    1.5399 C.ar      1 <0>        -0.0615
     29 C24         2.8070    3.7738    0.0720 C.ar      1 <0>        -0.0615
     30 C25         3.7992   -2.8497    2.1324 C.ar      1 <0>        -0.0615
     31 C26         2.2125   -2.3425   -2.1965 C.3       1 <0>         0.0029
     32 C27         2.7716   -0.7053   -3.9303 C.3       1 <0>         0.0029
     33 C28         3.0579    3.9771    1.4291 C.ar      1 <0>        -0.0617
     34 C29         5.1743   -2.6312    2.2155 C.ar      1 <0>        -0.0617
     35 H1         -3.6387   -0.3913   -1.6535 H         1 <0>         0.0309
     36 H2         -4.1451    1.2983   -1.7198 H         1 <0>         0.0309
     37 H3         -3.1294   -0.2537    2.1781 H         1 <0>         0.0309
     38 H4         -2.9329   -1.3647    0.8077 H         1 <0>         0.0309
     39 H5         -1.8104    0.9913   -2.3829 H         1 <0>         0.0427
     40 H6         -1.9734    2.0980   -1.0223 H         1 <0>         0.0427
     41 H7         -1.3702    1.2099    1.3147 H         1 <0>         0.0427
     42 H8         -0.8745   -0.4773    1.4615 H         1 <0>         0.0427
     43 H9          0.4689    0.6227   -1.8183 H         1 <0>         0.0427
     44 H10         0.3292    1.6502   -0.3821 H         1 <0>         0.0427
     45 H11         0.9521   -1.3538   -0.3366 H         1 <0>         0.0294
     46 H12         0.9684   -0.2910    1.0479 H         1 <0>         0.0294
     47 H13        -3.2020    2.2488    0.7616 H         1 <0>         0.2106
     48 H14        -6.2694    1.4599   -0.8666 H         1 <0>         0.0622
     49 H15        -4.8823   -1.7476    1.6982 H         1 <0>         0.0622
     50 H16         3.1651    0.7684    2.4853 H         1 <0>         0.0621
     51 H17         5.4219    0.1329    0.2684 H         1 <0>         0.0621
     52 H18         2.4725    2.3536   -1.4827 H         1 <0>         0.0621
     53 H19         1.9442   -2.2158    1.3459 H         1 <0>         0.0621
     54 H20        -8.5382    0.5515   -0.7406 H         1 <0>         0.0632
     55 H21        -7.1310   -2.6277    1.8123 H         1 <0>         0.0632
     56 H22         3.3852    3.0427    3.3418 H         1 <0>         0.0618
     57 H23         6.8225   -1.3854    1.6061 H         1 <0>         0.0618
     58 H24         2.6876    4.6255   -0.5912 H         1 <0>         0.0618
     59 H25         3.3505   -3.6874    2.6584 H         1 <0>         0.0618
     60 H26         2.4568   -2.6478   -1.1823 H         1 <0>         0.0428
     61 H27         2.6689   -3.0695   -2.8763 H         1 <0>         0.0428
     62 H28         1.1305   -2.3426   -2.3537 H         1 <0>         0.0428
     63 H29         1.7810   -0.8855   -4.3582 H         1 <0>         0.0428
     64 H30         3.0437    0.3402   -4.1007 H         1 <0>         0.0428
     65 H31         3.5084   -1.3516   -4.4160 H         1 <0>         0.0428
     66 H32         3.1375    4.9867    1.8214 H         1 <0>         0.0618
     67 H33         5.7953   -3.2979    2.8066 H         1 <0>         0.0618
@<TRIPOS>BOND
     1    1   26 1
     2    2    6 1
     3    2   47 1
     4    3   17 2
     5    4    9 1
     6    4   10 1
     7    4   11 1
     8    5   17 am
     9    5   31 1
    10    5   32 1
    11    6    7 1
    12    6    8 1
    13    6   14 1
    14    7    9 1
    15    7   35 1
    16    7   36 1
    17    8   10 1
    18    8   37 1
    19    8   38 1
    20    9   39 1
    21    9   40 1
    22   10   41 1
    23   10   42 1
    24   11   12 1
    25   11   43 1
    26   11   44 1
    27   12   13 1
    28   12   45 1
    29   12   46 1
    30   13   15 1
    31   13   16 1
    32   13   17 1
    33   14   18 ar
    34   14   19 ar
    35   15   20 ar
    36   15   22 ar
    37   16   21 ar
    38   16   23 ar
    39   18   24 ar
    40   18   48 1
    41   19   25 ar
    42   19   49 1
    43   20   27 ar
    44   20   50 1
    45   21   28 ar
    46   21   51 1
    47   22   29 ar
    48   22   52 1
    49   23   30 ar
    50   23   53 1
    51   24   26 ar
    52   24   54 1
    53   25   26 ar
    54   25   55 1
    55   27   33 ar
    56   27   56 1
    57   28   34 ar
    58   28   57 1
    59   29   33 ar
    60   29   58 1
    61   30   34 ar
    62   30   59 1
    63   31   60 1
    64   31   61 1
    65   31   62 1
    66   32   63 1
    67   32   64 1
    68   32   65 1
    69   33   66 1
    70   34   67 1
