@<TRIPOS>MOLECULE
DB00668
   26    26     0     0     0
SMALL
USER_CHARGES

@<TRIPOS>ATOM
      1 O1          0.9570    1.9994    1.6978 O.3       1 <0>        -0.3859
      2 O2         -2.6992   -1.6901    1.6873 O.3       1 <0>        -0.5033
      3 O3         -4.2173   -0.7882   -0.4585 O.3       1 <0>        -0.5033
      4 N1          2.0761   -0.4984   -0.8305 N.3       1 <0>        -0.3162
      5 C1          0.9435    1.3100    0.4407 C.3       1 <0>         0.0927
      6 C2         -0.4199    0.7536    0.2056 C.ar      1 <0>        -0.0143
      7 C3          2.0280    0.2141    0.4442 C.3       1 <0>         0.0258
      8 C4         -0.9331   -0.2198    1.0630 C.ar      1 <0>        -0.0109
      9 C5         -1.1819    1.2061   -0.8716 C.ar      1 <0>        -0.0524
     10 C6         -2.2083   -0.7406    0.8429 C.ar      1 <0>         0.1586
     11 C7         -2.4570    0.6853   -1.0916 C.ar      1 <0>        -0.0162
     12 C8         -2.9702   -0.2880   -0.2343 C.ar      1 <0>         0.1582
     13 C9          3.1211   -1.5107   -0.8168 C.3       1 <0>        -0.0157
     14 H1          1.1898    2.0559   -0.3256 H         1 <0>         0.0656
     15 H2          1.8641   -0.4859    1.2731 H         1 <0>         0.0453
     16 H3          2.9968    0.6909    0.6451 H         1 <0>         0.0453
     17 H4         -0.3567   -0.5740    1.9138 H         1 <0>         0.0659
     18 H5         -0.7960    1.9635   -1.5486 H         1 <0>         0.0622
     19 H6          2.2543    0.1639   -1.5848 H         1 <0>         0.1217
     20 H7         -3.0399    1.0468   -1.9346 H         1 <0>         0.0655
     21 H8          1.8512    2.3608    1.8223 H         1 <0>         0.2103
     22 H9          2.9397   -2.2582   -0.0375 H         1 <0>         0.0388
     23 H10         4.1104   -1.0668   -0.6646 H         1 <0>         0.0388
     24 H11         3.1327   -2.0352   -1.7775 H         1 <0>         0.0388
     25 H12        -3.5913   -1.9355    1.3864 H         1 <0>         0.2923
     26 H13        -4.5939   -0.3588   -1.2457 H         1 <0>         0.2923
@<TRIPOS>BOND
     1    1    5 1
     2    1   21 1
     3    2   10 1
     4    2   25 1
     5    3   12 1
     6    3   26 1
     7    4    7 1
     8    4   13 1
     9    4   19 1
    10    5    6 1
    11    5    7 1
    12    5   14 1
    13    6    8 ar
    14    6    9 ar
    15    7   15 1
    16    7   16 1
    17    8   10 ar
    18    8   17 1
    19    9   11 ar
    20    9   18 1
    21   10   12 ar
    22   11   12 ar
    23   11   20 1
    24   13   22 1
    25   13   23 1
    26   13   24 1
