@<TRIPOS>MOLECULE
DB00678
   53    56     0     0     0
SMALL
USER_CHARGES

@<TRIPOS>ATOM
      1 Cl1        -3.1289    4.0653    2.1111 Cl        1 <0>        -0.0600
      2 O1          0.0475    3.9145   -0.1771 O.3       1 <0>        -0.3889
      3 N1         -2.0316    1.5105   -0.5373 N.pl3     1 <0>        -0.3239
      4 N2         -3.2741    1.4960    1.3033 N.2       1 <0>        -0.2205
      5 N3          3.6848    0.9947    2.2412 N.2       1 <0>        -0.1331
      6 N4          2.8738   -1.0860    2.6165 N.2       1 <0>        -0.1080
      7 N5          2.8337    0.9182    3.2740 N.pl3     1 <0>        -0.1761
      8 N6          2.3280   -0.2956    3.5327 N.2       1 <0>        -0.0485
      9 C1         -2.7980    0.7997    0.3185 C.cat     1 <0>         0.1119
     10 C2         -3.0472   -0.6719    0.1039 C.3       1 <0>         0.0057
     11 C3         -1.3622    1.0294   -1.7243 C.3       1 <0>         0.0498
     12 C4         -4.5226   -1.0275    0.3076 C.3       1 <0>        -0.0465
     13 C5         -2.0091    2.7908   -0.0606 C.2       1 <0>         0.0831
     14 C6          0.0272    0.5426   -1.4122 C.ar      1 <0>        -0.0277
     15 C7         -4.7624   -2.5259    0.1237 C.3       1 <0>        -0.0555
     16 C8         -2.7829    2.7573    1.0756 C.2       1 <0>         0.1527
     17 C9         -1.2717    3.8841   -0.7212 C.3       1 <0>         0.0872
     18 C10         0.2245   -0.7873   -1.0660 C.ar      1 <0>        -0.0563
     19 C11         1.0930    1.4298   -1.4745 C.ar      1 <0>        -0.0563
     20 C12         2.5903   -0.3554   -0.8360 C.ar      1 <0>        -0.0172
     21 C13         1.5122   -1.2384   -0.7764 C.ar      1 <0>        -0.0537
     22 C14         2.3808    0.9787   -1.1851 C.ar      1 <0>        -0.0537
     23 C15        -6.2186   -2.8909    0.3642 C.3       1 <0>        -0.0653
     24 C16         3.9262   -0.8237   -0.5365 C.ar      1 <0>        -0.0071
     25 C17         4.4453   -0.7890    0.7600 C.ar      1 <0>         0.0304
     26 C18         4.7076   -1.3222   -1.5816 C.ar      1 <0>        -0.0534
     27 C19         5.7380   -1.2498    1.0097 C.ar      1 <0>        -0.0503
     28 C20         6.0003   -1.7829   -1.3320 C.ar      1 <0>        -0.0611
     29 C21         3.6747   -0.2831    1.8666 C.2       1 <0>         0.2049
     30 C22         6.5156   -1.7466   -0.0363 C.ar      1 <0>        -0.0611
     31 H1         -2.7700   -1.0167   -0.8922 H         1 <0>         0.0343
     32 H2         -2.4321   -1.2274    0.8226 H         1 <0>         0.0343
     33 H3         -1.9621    0.2520   -2.2056 H         1 <0>         0.0542
     34 H4         -1.3314    1.8285   -2.4717 H         1 <0>         0.0542
     35 H5         -5.1416   -0.4633   -0.4018 H         1 <0>         0.0269
     36 H6         -4.8436   -0.7302    1.3140 H         1 <0>         0.0269
     37 H7         -4.4784   -2.8271   -0.8914 H         1 <0>         0.0263
     38 H8         -4.1319   -3.0923    0.8188 H         1 <0>         0.0263
     39 H9         -1.7405    4.8539   -0.5229 H         1 <0>         0.0623
     40 H10        -1.2037    3.7897   -1.8063 H         1 <0>         0.0623
     41 H11        -0.5941   -1.4971   -1.0323 H         1 <0>         0.0621
     42 H12         0.9640    2.4506   -1.8129 H         1 <0>         0.0621
     43 H13         1.6587   -2.2824   -0.5098 H         1 <0>         0.0624
     44 H14         3.2122    1.6765   -1.2513 H         1 <0>         0.0624
     45 H15        -6.8756   -2.3636   -0.3349 H         1 <0>         0.0230
     46 H16        -6.5244   -2.6345    1.3834 H         1 <0>         0.0230
     47 H17        -6.3677   -3.9663    0.2252 H         1 <0>         0.0230
     48 H18         4.3242   -1.3588   -2.5990 H         1 <0>         0.0624
     49 H19        -0.0258    4.1463    0.7648 H         1 <0>         0.2099
     50 H20         6.1561   -1.2296    2.0135 H         1 <0>         0.0625
     51 H21         6.6059   -2.1698   -2.1464 H         1 <0>         0.0618
     52 H22         7.5221   -2.1056    0.1579 H         1 <0>         0.0618
     53 H23         2.5858    1.7318    3.8268 H         1 <0>         0.2143
@<TRIPOS>BOND
     1    1   16 1
     2    2   17 1
     3    2   49 1
     4    3    9 1
     5    3   11 1
     6    3   13 2
     7    4    9 1
     8    4   16 2
     9    5    7 1
    10    5   29 2
    11    6    8 2
    12    6   29 1
    13    7    8 1
    14    7   53 1
    15    9   10 1
    16   10   12 1
    17   10   31 1
    18   10   32 1
    19   11   14 1
    20   11   33 1
    21   11   34 1
    22   12   15 1
    23   12   35 1
    24   12   36 1
    25   13   16 1
    26   13   17 1
    27   14   18 ar
    28   14   19 ar
    29   15   23 1
    30   15   37 1
    31   15   38 1
    32   17   39 1
    33   17   40 1
    34   18   21 ar
    35   18   41 1
    36   19   22 ar
    37   19   42 1
    38   20   21 ar
    39   20   22 ar
    40   20   24 1
    41   21   43 1
    42   22   44 1
    43   23   45 1
    44   23   46 1
    45   23   47 1
    46   24   25 ar
    47   24   26 ar
    48   25   27 ar
    49   25   29 1
    50   26   28 ar
    51   26   48 1
    52   27   30 ar
    53   27   50 1
    54   28   30 ar
    55   28   51 1
    56   30   52 1
