@<TRIPOS>MOLECULE
DB00579
   33    36     0     0     0
SMALL
USER_CHARGES

@<TRIPOS>ATOM
      1 Cl1         5.5056   -1.0176   -1.5124 Cl        1 <0>        -0.0835
      2 O1          0.0771    0.1716    2.2589 O.3       1 <0>        -0.3462
      3 N1         -0.5371    1.3008    0.2646 N.pl3     1 <0>        -0.1796
      4 N2         -2.4301    2.1393   -0.7132 N.2       1 <0>        -0.0788
      5 C1          0.0637    0.1102    0.8366 C.3       1 <0>         0.2563
      6 C2         -1.0051   -0.9130    0.4405 C.ar      1 <0>         0.0454
      7 C3         -1.7674    1.1092   -0.2797 C.2       1 <0>         0.3181
      8 C4         -0.2508    2.6887    0.3744 C.3       1 <0>         0.1255
      9 C5         -2.0938   -0.2971   -0.2188 C.ar      1 <0>         0.0753
     10 C6          1.4338   -0.1723    0.2451 C.ar      1 <0>         0.0307
     11 C7         -1.4551    3.2649   -0.4259 C.3       1 <0>         0.1678
     12 C8         -1.0269   -2.2785    0.6626 C.ar      1 <0>        -0.0508
     13 C9         -3.1991   -0.9852   -0.6670 C.ar      1 <0>        -0.0464
     14 C10         1.6043   -0.2159   -1.1405 C.ar      1 <0>        -0.0503
     15 C11         2.5285   -0.3910    1.0849 C.ar      1 <0>        -0.0503
     16 C12        -2.1382   -3.0017    0.2127 C.ar      1 <0>        -0.0612
     17 C13        -3.2102   -2.3626   -0.4436 C.ar      1 <0>        -0.0609
     18 C14         2.8624   -0.4767   -1.6834 C.ar      1 <0>        -0.0429
     19 C15         3.7867   -0.6515    0.5418 C.ar      1 <0>        -0.0429
     20 C16         3.9537   -0.6945   -0.8423 C.ar      1 <0>         0.0410
     21 H1          0.7041    2.9660   -0.0809 H         1 <0>         0.0768
     22 H2         -0.2776    3.0309    1.4133 H         1 <0>         0.0768
     23 H3         -1.9620    4.0506    0.1435 H         1 <0>         0.0829
     24 H4         -1.1197    3.6861   -1.3802 H         1 <0>         0.0829
     25 H5         -0.2118   -2.7815    1.1712 H         1 <0>         0.0623
     26 H6         -4.0221   -0.4910   -1.1685 H         1 <0>         0.0626
     27 H7         -0.3840    0.9876    2.5153 H         1 <0>         0.2149
     28 H8          0.7695   -0.0508   -1.8163 H         1 <0>         0.0623
     29 H9          2.4326   -0.3663    2.1664 H         1 <0>         0.0623
     30 H10        -2.1783   -4.0762    0.3739 H         1 <0>         0.0618
     31 H11        -4.0582   -2.9546   -0.7782 H         1 <0>         0.0618
     32 H12         2.9776   -0.5077   -2.7639 H         1 <0>         0.0632
     33 H13         4.6280   -0.8200    1.2092 H         1 <0>         0.0632
@<TRIPOS>BOND
     1    1   20 1
     2    2    5 1
     3    2   27 1
     4    3    5 1
     5    3    7 1
     6    3    8 1
     7    4    7 2
     8    4   11 1
     9    5    6 1
    10    5   10 1
    11    6    9 ar
    12    6   12 ar
    13    7    9 1
    14    8   11 1
    15    8   21 1
    16    8   22 1
    17    9   13 ar
    18   10   14 ar
    19   10   15 ar
    20   11   23 1
    21   11   24 1
    22   12   16 ar
    23   12   25 1
    24   13   17 ar
    25   13   26 1
    26   14   18 ar
    27   14   28 1
    28   15   19 ar
    29   15   29 1
    30   16   17 ar
    31   16   30 1
    32   17   31 1
    33   18   20 ar
    34   18   32 1
    35   19   20 ar
    36   19   33 1
