@<TRIPOS>MOLECULE
DB00328
   41    43     0     0     0
SMALL
USER_CHARGES

@<TRIPOS>ATOM
      1 Cl1        -6.6335   -0.5232    0.4043 Cl        1 <0>        -0.0835
      2 O1          0.8339    4.2324   -0.1719 O.3       1 <0>        -0.4951
      3 O2         -0.6579   -3.3595   -0.1087 O.2       1 <0>        -0.2667
      4 O3          5.6526   -1.1470    0.7658 O.3       1 <0>        -0.4804
      5 O4          4.0350    0.0710    1.7957 O.2       1 <0>        -0.2507
      6 N1          0.1870   -1.2605   -0.1712 N.am      1 <0>        -0.2801
      7 C1          2.2955   -0.5100   -0.3886 C.2       1 <0>        -0.0080
      8 C2          1.4445    0.6150   -0.2839 C.2       1 <0>         0.0077
      9 C3          0.1330    0.1375   -0.1529 C.2       1 <0>         0.0574
     10 C4          1.5092   -1.6327   -0.3244 C.2       1 <0>         0.0284
     11 C5          3.7655   -0.4818   -0.5443 C.3       1 <0>         0.0721
     12 C6          1.6808    2.0057   -0.2918 C.2       1 <0>        -0.0105
     13 C7         -0.9464    1.0319   -0.0190 C.2       1 <0>        -0.0337
     14 C8          1.9653   -3.0414   -0.3982 C.3       1 <0>        -0.0235
     15 C9         -0.9007   -2.1572   -0.0890 C.2       1 <0>         0.2631
     16 C10         0.6074    2.8894   -0.1647 C.2       1 <0>         0.1208
     17 C11        -0.6878    2.4065   -0.0291 C.2       1 <0>        -0.0180
     18 C12        -2.3148   -1.7539    0.0334 C.ar      1 <0>         0.0399
     19 C13         4.4666   -0.4889    0.7958 C.2       1 <0>         0.3091
     20 C14        -3.0789   -1.5529   -1.1133 C.ar      1 <0>        -0.0480
     21 C15        -2.8789   -1.5772    1.2942 C.ar      1 <0>        -0.0480
     22 C16        -4.4160   -1.1727   -0.9985 C.ar      1 <0>        -0.0427
     23 C17        -4.2160   -1.1968    1.4090 C.ar      1 <0>        -0.0427
     24 C18        -4.9845   -0.9944    0.2628 C.ar      1 <0>         0.0410
     25 C19        -0.3032    5.0826   -0.0362 C.3       1 <0>         0.0788
     26 H1          4.0890    0.4184   -1.0791 H         1 <0>         0.0427
     27 H2          4.1121   -1.3332   -1.1397 H         1 <0>         0.0427
     28 H3          2.6916    2.3923   -0.3938 H         1 <0>         0.0661
     29 H4         -1.9727    0.7180    0.0918 H         1 <0>         0.0640
     30 H5          3.0525   -3.1248   -0.4836 H         1 <0>         0.0292
     31 H6          1.6929   -3.5916    0.5086 H         1 <0>         0.0292
     32 H7          1.5438   -3.5460   -1.2737 H         1 <0>         0.0292
     33 H8         -1.5590    3.0455    0.0757 H         1 <0>         0.0655
     34 H9         -2.6446   -1.6887   -2.1002 H         1 <0>         0.0626
     35 H10        -2.2880   -1.7319    2.1930 H         1 <0>         0.0626
     36 H11        -5.0024   -1.0179   -1.9005 H         1 <0>         0.0632
     37 H12        -4.6455   -1.0610    2.3983 H         1 <0>         0.0632
     38 H13        -0.7970    4.9437    0.9316 H         1 <0>         0.0660
     39 H14        -0.9956    4.9671   -0.8771 H         1 <0>         0.0660
     40 H15         0.0606    6.1149   -0.0627 H         1 <0>         0.0660
     41 H16         6.1044   -1.1269    1.6362 H         1 <0>         0.2951
@<TRIPOS>BOND
     1    1   24 1
     2    2   16 1
     3    2   25 1
     4    3   15 2
     5    4   19 1
     6    4   41 1
     7    5   19 2
     8    6    9 1
     9    6   10 2
    10    6   15 am
    11    7    8 2
    12    7   10 1
    13    7   11 1
    14    8    9 1
    15    8   12 2
    16    9   13 2
    17   10   14 1
    18   11   19 1
    19   11   26 1
    20   11   27 1
    21   12   16 1
    22   12   28 1
    23   13   17 1
    24   13   29 1
    25   14   30 1
    26   14   31 1
    27   14   32 1
    28   15   18 1
    29   16   17 2
    30   17   33 1
    31   18   20 ar
    32   18   21 ar
    33   20   22 ar
    34   20   34 1
    35   21   23 ar
    36   21   35 1
    37   22   24 ar
    38   22   36 1
    39   23   24 ar
    40   23   37 1
    41   25   38 1
    42   25   39 1
    43   25   40 1
