@<TRIPOS>MOLECULE
DB00826
   94    97     0     0     0
SMALL
USER_CHARGES

@<TRIPOS>ATOM
      1 O1          1.0335   -2.6826   -0.5778 O.3       1 <0>        -0.3444
      2 O2         -5.1079   -1.7464   -2.8781 O.3       1 <0>        -0.3638
      3 O3          0.0223   -4.7958   -0.2586 O.3       1 <0>        -0.3643
      4 O4          0.8985   -2.7653    3.5520 O.3       1 <0>        -0.3907
      5 O5          4.5247   -0.2659   -1.4878 O.3       1 <0>        -0.3413
      6 O6         -3.2151   -3.3916    0.5843 O.3       1 <0>        -0.3915
      7 O7          4.8645    1.5531   -0.0452 O.3       1 <0>        -0.3431
      8 O8          4.1430   -1.9930    2.7832 O.3       1 <0>        -0.4803
      9 O9          3.9218   -4.1999    2.2575 O.2       1 <0>        -0.2505
     10 O10         6.1172    1.7552   -2.6229 O.3       1 <0>        -0.3851
     11 O11         7.8810    3.3525    1.0243 O.3       1 <0>        -0.3876
     12 O12        -7.1970    1.7207    0.1910 O.3       1 <0>        -0.4582
     13 O13        -7.7681    0.5903    2.1177 O.2       1 <0>        -0.2456
     14 N1          8.7159    2.2708   -1.5699 N.3       1 <0>        -0.3229
     15 C1         -0.0952   -3.3896   -0.0387 C.3       1 <0>         0.1723
     16 C2          2.2852   -2.9769    0.0492 C.3       1 <0>         0.0799
     17 C3          2.2461   -2.6099    1.5394 C.3       1 <0>         0.1084
     18 C4         -0.2387   -3.0636    1.4526 C.3       1 <0>         0.0282
     19 C5          1.0590   -3.2870    2.2330 C.3       1 <0>         0.0754
     20 C6         -1.3083   -2.8946   -0.8676 C.3       1 <0>         0.0274
     21 C7         -2.6269   -3.6659   -0.6810 C.3       1 <0>         0.0626
     22 C8         -4.2272   -2.0055   -1.7745 C.3       1 <0>         0.0915
     23 C9         -3.6378   -3.3872   -1.8034 C.3       1 <0>         0.0025
     24 C10         3.4007   -2.2656   -0.7476 C.3       1 <0>         0.0045
     25 C11        -5.7168   -1.8057   -1.5787 C.3       1 <0>         0.1040
     26 C12         3.4374   -0.7274   -0.6829 C.3       1 <0>         0.0826
     27 C13         3.5113   -3.0497    2.2161 C.2       1 <0>         0.3128
     28 C14         5.4802    0.4455   -0.7058 C.3       1 <0>         0.1875
     29 C15         6.6403    0.9220   -1.5842 C.3       1 <0>         0.1234
     30 C16         7.6564    1.6986   -0.7354 C.3       1 <0>         0.0646
     31 C17         6.9638    2.8023    0.0815 C.3       1 <0>         0.0987
     32 C18        -6.1950   -0.6007   -0.8870 C.2       1 <0>        -0.0464
     33 C19         5.7590    2.2283    0.8444 C.3       1 <0>         0.0863
     34 C20         2.1889   -0.0857   -1.2134 C.2       1 <0>        -0.0555
     35 C21         4.9639    3.3257    1.5453 C.3       1 <0>        -0.0361
     36 C22        -6.8156   -0.5917    0.3027 C.2       1 <0>         0.0211
     37 C23         1.3606    0.6493   -0.4568 C.2       1 <0>        -0.0633
     38 C24        -7.3144    0.6256    0.9820 C.2       1 <0>         0.3320
     39 C25         0.1088    1.1787   -0.9448 C.2       1 <0>        -0.0620
     40 C26        -0.7502    1.8459   -0.1605 C.2       1 <0>        -0.0618
     41 C27        -7.5486    3.0074    0.7521 C.3       1 <0>         0.1040
     42 C28        -6.6019    4.0492    0.1412 C.3       1 <0>         0.0026
     43 C29        -2.0427    2.2996   -0.6211 C.2       1 <0>        -0.0618
     44 C30        -8.9991    3.3058    0.3945 C.3       1 <0>        -0.0274
     45 C31        -5.1846    3.7801    0.5674 C.2       1 <0>        -0.0805
     46 C32        -2.9292    2.9055    0.1824 C.2       1 <0>        -0.0621
     47 C33        -4.2552    3.2730   -0.2559 C.2       1 <0>        -0.0656
     48 H1          2.4670   -4.0547   -0.0621 H         1 <0>         0.0607
     49 H2          2.1227   -1.5279    1.6662 H         1 <0>         0.0465
     50 H3         -1.0264   -3.6709    1.9131 H         1 <0>         0.0342
     51 H4         -0.5355   -2.0136    1.5781 H         1 <0>         0.0342
     52 H5          1.2407   -4.3647    2.3309 H         1 <0>         0.0604
     53 H6         -1.0278   -2.9529   -1.9288 H         1 <0>         0.0342
     54 H7         -1.4598   -1.8285   -0.6558 H         1 <0>         0.0342
     55 H8         -2.4147   -4.7406   -0.7052 H         1 <0>         0.0596
     56 H9         -3.5283   -1.2191   -1.5292 H         1 <0>         0.0626
     57 H10        -4.4506   -4.1203   -1.7220 H         1 <0>         0.0316
     58 H11        -3.1612   -3.5568   -2.7765 H         1 <0>         0.0316
     59 H12         3.3175   -2.5625   -1.8030 H         1 <0>         0.0319
     60 H13         4.3775   -2.6449   -0.4199 H         1 <0>         0.0319
     61 H14        -6.3220   -2.6868   -1.3877 H         1 <0>         0.0667
     62 H15         3.5839   -0.4457    0.3668 H         1 <0>         0.0642
     63 H16        -0.1656   -4.9755   -1.1951 H         1 <0>         0.2128
     64 H17         5.8720   -0.2472    0.0525 H         1 <0>         0.0937
     65 H18         7.1094    0.0604   -2.0745 H         1 <0>         0.0660
     66 H19         8.1399    0.9996   -0.0407 H         1 <0>         0.0512
     67 H20         0.1417   -3.2220    3.9574 H         1 <0>         0.2098
     68 H21         6.6340    3.6041   -0.5925 H         1 <0>         0.0635
     69 H22        -6.0296    0.3340   -1.4166 H         1 <0>         0.0601
     70 H23         6.0962    1.5213    1.6141 H         1 <0>         0.0620
     71 H24        -4.0350   -3.9106    0.6475 H         1 <0>         0.2098
     72 H25         1.9439   -0.2772   -2.2562 H         1 <0>         0.0598
     73 H26         4.0719    2.9018    2.0202 H         1 <0>         0.0255
     74 H27         4.6091    4.0722    0.8261 H         1 <0>         0.0255
     75 H28         5.5527    3.8307    2.3161 H         1 <0>         0.0255
     76 H29         4.9742   -2.2598    3.2304 H         1 <0>         0.2951
     77 H30         8.3239    2.9789   -2.1895 H         1 <0>         0.1186
     78 H31         9.3825    2.7638   -0.9763 H         1 <0>         0.1186
     79 H32        -6.9747   -1.5240    0.8374 H         1 <0>         0.0686
     80 H33         6.8502    1.9608   -3.2274 H         1 <0>         0.2101
     81 H34         1.6040    0.8263    0.5878 H         1 <0>         0.0615
     82 H35         7.5005    4.1811    1.3605 H         1 <0>         0.2100
     83 H36        -0.1437    0.9789   -1.9838 H         1 <0>         0.0617
     84 H37        -0.5028    2.0317    0.8824 H         1 <0>         0.0618
     85 H38        -7.4312    2.9974    1.8433 H         1 <0>         0.0734
     86 H39        -6.8811    5.0582    0.4659 H         1 <0>         0.0343
     87 H40        -6.6768    4.0259   -0.9535 H         1 <0>         0.0343
     88 H41        -2.3001    2.0922   -1.6574 H         1 <0>         0.0618
     89 H42        -9.1484    3.2842   -0.6906 H         1 <0>         0.0265
     90 H43        -9.6635    2.5452    0.8180 H         1 <0>         0.0265
     91 H44        -9.3074    4.2852    0.7727 H         1 <0>         0.0265
     92 H45        -4.9462    3.9670    1.6121 H         1 <0>         0.0573
     93 H46        -2.6793    3.0979    1.2233 H         1 <0>         0.0617
     94 H47        -4.5127    3.0694   -1.2925 H         1 <0>         0.0614
@<TRIPOS>BOND
     1    1   15 1
     2    1   16 1
     3    2   22 1
     4    2   25 1
     5    3   15 1
     6    3   63 1
     7    4   19 1
     8    4   67 1
     9    5   26 1
    10    5   28 1
    11    6   21 1
    12    6   71 1
    13    7   28 1
    14    7   33 1
    15    8   27 1
    16    8   76 1
    17    9   27 2
    18   10   29 1
    19   10   80 1
    20   11   31 1
    21   11   82 1
    22   12   38 1
    23   12   41 1
    24   13   38 2
    25   14   30 1
    26   14   77 1
    27   14   78 1
    28   15   18 1
    29   15   20 1
    30   16   17 1
    31   16   24 1
    32   16   48 1
    33   17   19 1
    34   17   27 1
    35   17   49 1
    36   18   19 1
    37   18   50 1
    38   18   51 1
    39   19   52 1
    40   20   21 1
    41   20   53 1
    42   20   54 1
    43   21   23 1
    44   21   55 1
    45   22   23 1
    46   22   25 1
    47   22   56 1
    48   23   57 1
    49   23   58 1
    50   24   26 1
    51   24   59 1
    52   24   60 1
    53   25   32 1
    54   25   61 1
    55   26   34 1
    56   26   62 1
    57   28   29 1
    58   28   64 1
    59   29   30 1
    60   29   65 1
    61   30   31 1
    62   30   66 1
    63   31   33 1
    64   31   68 1
    65   32   36 2
    66   32   69 1
    67   33   35 1
    68   33   70 1
    69   34   37 2
    70   34   72 1
    71   35   73 1
    72   35   74 1
    73   35   75 1
    74   36   38 1
    75   36   79 1
    76   37   39 1
    77   37   81 1
    78   39   40 2
    79   39   83 1
    80   40   43 1
    81   40   84 1
    82   41   42 1
    83   41   44 1
    84   41   85 1
    85   42   45 1
    86   42   86 1
    87   42   87 1
    88   43   46 2
    89   43   88 1
    90   44   89 1
    91   44   90 1
    92   44   91 1
    93   45   47 2
    94   45   92 1
    95   46   47 1
    96   46   93 1
    97   47   94 1
