@<TRIPOS>MOLECULE
DB00939
   30    31     0     0     0
SMALL
USER_CHARGES

@<TRIPOS>ATOM
      1 Cl1         1.2351    0.6709   -2.2156 Cl        1 <0>        -0.0813
      2 Cl2         0.5563    0.2327    3.1707 Cl        1 <0>        -0.0816
      3 O1         -4.0481    2.2290   -0.6679 O.3       1 <0>        -0.4771
      4 O2         -2.3167    2.6434    0.7301 O.2       1 <0>        -0.2451
      5 N1         -0.3479    0.6983    0.3288 N.pl3     1 <0>        -0.3116
      6 C1          1.0235    0.4267    0.4855 C.ar      1 <0>         0.0687
      7 C2         -1.4688   -0.1352    0.1167 C.ar      1 <0>         0.0455
      8 C3          3.2309    0.1162   -0.4682 C.ar      1 <0>        -0.0302
      9 C4          1.8715    0.3855   -0.6277 C.ar      1 <0>         0.0664
     10 C5         -2.7494    0.4042   -0.0061 C.ar      1 <0>         0.0799
     11 C6          1.5540    0.1948    1.7599 C.ar      1 <0>         0.0635
     12 C7          3.7516   -0.1140    0.8051 C.ar      1 <0>        -0.0560
     13 C8         -1.2820   -1.5149    0.0302 C.ar      1 <0>        -0.0397
     14 C9          2.9133   -0.0747    1.9191 C.ar      1 <0>        -0.0412
     15 C10        -3.8428   -0.4361   -0.2158 C.ar      1 <0>        -0.0460
     16 C11         4.1680    0.0636   -1.6320 C.3       1 <0>        -0.0383
     17 C12        -2.3755   -2.3550   -0.1795 C.ar      1 <0>        -0.0600
     18 C13        -3.6559   -1.8157   -0.3023 C.ar      1 <0>        -0.0609
     19 C14        -2.9783    1.8410    0.0794 C.2       1 <0>         0.3386
     20 H1         -0.5455    1.6935    0.3377 H         1 <0>         0.1523
     21 H2          4.8079   -0.3257    0.9491 H         1 <0>         0.0621
     22 H3         -0.2968   -1.9638    0.1222 H         1 <0>         0.0636
     23 H4          3.3351   -0.2564    2.9044 H         1 <0>         0.0633
     24 H5         -4.8552   -0.0502   -0.3016 H         1 <0>         0.0626
     25 H6          4.1935    1.0277   -2.1505 H         1 <0>         0.0278
     26 H7          5.1943   -0.1600   -1.3199 H         1 <0>         0.0278
     27 H8          3.8679   -0.7222   -2.3333 H         1 <0>         0.0278
     28 H9         -2.2303   -3.4293   -0.2462 H         1 <0>         0.0618
     29 H10        -4.5075   -2.4706   -0.4622 H         1 <0>         0.0618
     30 H11        -4.2021    3.1961   -0.6101 H         1 <0>         0.2954
@<TRIPOS>BOND
     1    1    9 1
     2    2   11 1
     3    3   19 1
     4    3   30 1
     5    4   19 2
     6    5    6 1
     7    5    7 1
     8    5   20 1
     9    6    9 ar
    10    6   11 ar
    11    7   10 ar
    12    7   13 ar
    13    8    9 ar
    14    8   12 ar
    15    8   16 1
    16   10   15 ar
    17   10   19 1
    18   11   14 ar
    19   12   14 ar
    20   12   21 1
    21   13   17 ar
    22   13   22 1
    23   14   23 1
    24   15   18 ar
    25   15   24 1
    26   16   25 1
    27   16   26 1
    28   16   27 1
    29   17   18 ar
    30   17   28 1
    31   18   29 1
