@<TRIPOS>MOLECULE
DB00904
   41    44     0     0     0
SMALL
USER_CHARGES

@<TRIPOS>ATOM
      1 O1         -0.7899   -1.4751    1.3084 O.2       1 <0>        -0.2916
      2 N1          2.6454    1.1170   -0.2451 N.pl3     1 <0>        -0.3462
      3 N2         -2.9161   -0.6172   -0.6424 N.pl3     1 <0>        -0.3338
      4 N3         -4.5756   -2.0643   -0.4481 N.2       1 <0>        -0.2409
      5 C1         -1.4357    0.7825    0.7568 C.3       1 <0>         0.0405
      6 C2         -0.7601    2.1649    0.8987 C.3       1 <0>        -0.0362
      7 C3          0.4536    2.3526   -0.0252 C.3       1 <0>        -0.0109
      8 C4          1.3194    1.1509    0.0773 C.cat     1 <0>         0.0300
      9 C5          0.9397   -0.1038    0.5025 C.2       1 <0>         0.0461
     10 C6         -0.4308   -0.3697    0.9100 C.2       1 <0>         0.1702
     11 C7         -2.1747    0.6326   -0.5704 C.3       1 <0>         0.0342
     12 C8          2.0910   -0.9406    0.4444 C.ar      1 <0>         0.0106
     13 C9          3.1446   -0.1493   -0.0284 C.ar      1 <0>         0.0497
     14 C10         3.4190    2.2382   -0.7372 C.3       1 <0>         0.0121
     15 C11         2.3492   -2.2945    0.7438 C.ar      1 <0>        -0.0519
     16 C12         4.4392   -0.6477   -0.2146 C.ar      1 <0>        -0.0376
     17 C13        -4.2032   -0.8193   -0.2504 C.cat     1 <0>         0.1065
     18 C14        -2.4277   -1.7935   -1.1193 C.2       1 <0>         0.0243
     19 C15         3.6399   -2.8047    0.5618 C.ar      1 <0>        -0.0611
     20 C16         4.6674   -1.9920    0.0898 C.ar      1 <0>        -0.0598
     21 C17        -3.4732   -2.6772   -0.9891 C.2       1 <0>         0.0457
     22 C18        -5.0393    0.2567    0.3205 C.3       1 <0>        -0.0063
     23 H1         -2.1472    0.6851    1.5876 H         1 <0>         0.0398
     24 H2         -0.4230    2.2745    1.9391 H         1 <0>         0.0276
     25 H3         -1.4874    2.9656    0.7203 H         1 <0>         0.0276
     26 H4          0.9879    3.2608    0.2743 H         1 <0>         0.0328
     27 H5          0.1237    2.4837   -1.0618 H         1 <0>         0.0328
     28 H6         -1.4822    0.6338   -1.4211 H         1 <0>         0.0499
     29 H7         -2.8786    1.4561   -0.7304 H         1 <0>         0.0499
     30 H8          3.8764    2.7363    0.1211 H         1 <0>         0.0456
     31 H9          4.1857    1.8794   -1.4279 H         1 <0>         0.0456
     32 H10         2.7664    2.9278   -1.2777 H         1 <0>         0.0456
     33 H11         1.5610   -2.9448    1.1121 H         1 <0>         0.0624
     34 H12         5.2490   -0.0237   -0.5775 H         1 <0>         0.0638
     35 H13        -1.4239   -1.9064   -1.5050 H         1 <0>         0.0825
     36 H14         3.8406   -3.8477    0.7921 H         1 <0>         0.0618
     37 H15         5.6627   -2.4083   -0.0433 H         1 <0>         0.0618
     38 H16        -3.4888   -3.7228   -1.2598 H         1 <0>         0.0845
     39 H17        -6.0105   -0.1414    0.6321 H         1 <0>         0.0307
     40 H18        -4.5687    0.7036    1.2010 H         1 <0>         0.0307
     41 H19        -5.2255    1.0417   -0.4188 H         1 <0>         0.0307
@<TRIPOS>BOND
     1    1   10 2
     2    2    8 1
     3    2   13 2
     4    2   14 1
     5    3   11 1
     6    3   17 1
     7    3   18 2
     8    4   17 1
     9    4   21 2
    10    5    6 1
    11    5   10 1
    12    5   11 1
    13    5   23 1
    14    6    7 1
    15    6   24 1
    16    6   25 1
    17    7    8 1
    18    7   26 1
    19    7   27 1
    20    8    9 1
    21    9   10 1
    22    9   12 2
    23   11   28 1
    24   11   29 1
    25   12   13 ar
    26   12   15 ar
    27   13   16 ar
    28   14   30 1
    29   14   31 1
    30   14   32 1
    31   15   19 ar
    32   15   33 1
    33   16   20 ar
    34   16   34 1
    35   17   22 1
    36   18   21 1
    37   18   35 1
    38   19   20 ar
    39   19   36 1
    40   20   37 1
    41   21   38 1
    42   22   39 1
    43   22   40 1
    44   22   41 1
