@<TRIPOS>MOLECULE
DB00762
   81    87     0     0     0
SMALL
USER_CHARGES

@<TRIPOS>ATOM
      1 O1         -2.1323   -1.5373    0.9462 O.3       1 <0>        -0.4114
      2 O2         10.3349    1.2663    0.4263 O.3       1 <0>        -0.4575
      3 O3         -2.1809   -1.7135   -1.3618 O.2       1 <0>        -0.2258
      4 O4          8.7781   -1.8480    1.0879 O.3       1 <0>        -0.3732
      5 O5          6.8329    3.5995   -0.0273 O.2       1 <0>        -0.2672
      6 O6         11.1340   -0.6715    1.2295 O.2       1 <0>        -0.2472
      7 N1         -7.9102    0.1710   -0.1350 N.3       1 <0>        -0.2993
      8 N2         -4.1647   -1.7840   -0.1518 N.am      1 <0>        -0.2670
      9 N3          5.4912    1.7343    0.2317 N.am      1 <0>        -0.3019
     10 N4          3.4158   -1.1831    0.5873 N.ar      1 <0>        -0.2449
     11 C1         -6.9155   -0.9002   -0.0844 C.3       1 <0>         0.0133
     12 C2         -5.9768   -0.6903    1.1111 C.3       1 <0>        -0.0213
     13 C3         -6.1164   -0.9379   -1.3938 C.3       1 <0>        -0.0213
     14 C4         -8.8147   -0.0211   -1.2774 C.3       1 <0>        -0.0008
     15 C5         -8.6574    0.2387    1.1287 C.3       1 <0>        -0.0008
     16 C6         -4.8719   -1.7457    1.1323 C.3       1 <0>         0.0192
     17 C7         -5.0098   -1.9888   -1.3280 C.3       1 <0>         0.0192
     18 C8         -9.8312    1.1175   -1.3737 C.3       1 <0>        -0.0402
     19 C9         -9.6688    1.3860    1.1111 C.3       1 <0>        -0.0402
     20 C10       -10.6176    1.2703   -0.0766 C.3       1 <0>        -0.0507
     21 C11        -2.7767   -1.6818   -0.2856 C.2       1 <0>         0.4082
     22 C12         5.3638    0.3599    0.3500 C.2       1 <0>         0.0713
     23 C13         3.2409    1.2334    0.4058 C.ar      1 <0>         0.0035
     24 C14         4.1693    2.3936    0.2589 C.3       1 <0>         0.0541
     25 C15         7.7545    0.1424    0.2232 C.2       1 <0>         0.0082
     26 C16         8.9597   -0.7562    0.1831 C.3       1 <0>         0.1877
     27 C17         3.9475    0.0404    0.4583 C.ar      1 <0>         0.0932
     28 C18         7.9047    1.4729    0.0926 C.2       1 <0>         0.0606
     29 C19         1.8697    1.1868    0.4909 C.ar      1 <0>        -0.0314
     30 C20         6.4293   -0.4451    0.3462 C.2       1 <0>        -0.0290
     31 C21         6.7046    2.3833    0.0931 C.2       1 <0>         0.2589
     32 C22         1.2551   -0.0691    0.6273 C.ar      1 <0>         0.0074
     33 C23         9.2026   -1.3117   -1.2224 C.3       1 <0>        -0.0121
     34 C24         9.2540    2.0843   -0.0726 C.3       1 <0>         0.1230
     35 C25         2.0708   -1.2353    0.6715 C.ar      1 <0>         0.0722
     36 C26        10.2238   -0.0598    0.6733 C.2       1 <0>         0.3441
     37 C27         1.0962    2.4631    0.4355 C.3       1 <0>        -0.0295
     38 C28        -0.7407   -1.4314    0.8548 C.ar      1 <0>         0.1339
     39 C29        -0.1410   -0.1824    0.7196 C.ar      1 <0>        -0.0097
     40 C30         1.4399   -2.4675    0.8070 C.ar      1 <0>        -0.0322
     41 C31         0.0499   -2.5734    0.8987 C.ar      1 <0>        -0.0171
     42 C32        10.3988   -2.2415   -1.2466 C.3       1 <0>        -0.0618
     43 C33         0.7128    2.8459   -0.9908 C.3       1 <0>        -0.0612
     44 H1         -7.4168   -1.8713    0.0404 H         1 <0>         0.0463
     45 H2         -6.4916   -0.7858    2.0715 H         1 <0>         0.0295
     46 H3         -5.5223    0.3083    1.0679 H         1 <0>         0.0295
     47 H4         -5.6706    0.0450   -1.5952 H         1 <0>         0.0295
     48 H5         -6.7328   -1.2106   -2.2553 H         1 <0>         0.0295
     49 H6         -8.2843    0.0057   -2.2326 H         1 <0>         0.0427
     50 H7         -9.3396   -0.9829   -1.2103 H         1 <0>         0.0427
     51 H8         -9.1725   -0.7082    1.3367 H         1 <0>         0.0427
     52 H9         -8.0098    0.4642    1.9797 H         1 <0>         0.0427
     53 H10        -4.1878   -1.5424    1.9605 H         1 <0>         0.0466
     54 H11        -5.2970   -2.7431    1.2972 H         1 <0>         0.0466
     55 H12        -5.4388   -2.9949   -1.2501 H         1 <0>         0.0466
     56 H13        -4.4118   -1.9573   -2.2444 H         1 <0>         0.0466
     57 H14        -9.3114    2.0578   -1.5979 H         1 <0>         0.0278
     58 H15       -10.5224    0.9290   -2.2031 H         1 <0>         0.0278
     59 H16        -9.1376    2.3452    1.0613 H         1 <0>         0.0278
     60 H17       -10.2446    1.3878    2.0436 H         1 <0>         0.0278
     61 H18       -11.2637    2.1534   -0.1297 H         1 <0>         0.0266
     62 H19       -11.2707    0.3997    0.0601 H         1 <0>         0.0266
     63 H20         4.0296    2.9380   -0.6795 H         1 <0>         0.0543
     64 H21         4.1393    3.0764    1.1133 H         1 <0>         0.0543
     65 H22         6.3239   -1.5213    0.4246 H         1 <0>         0.0643
     66 H23         8.3268   -1.8843   -1.5536 H         1 <0>         0.0299
     67 H24         9.3590   -0.5040   -1.9478 H         1 <0>         0.0299
     68 H25         9.4549    2.3034   -1.1265 H         1 <0>         0.0750
     69 H26         9.3156    3.0256    0.4834 H         1 <0>         0.0750
     70 H27         1.6954    3.2786    0.8612 H         1 <0>         0.0311
     71 H28         0.2104    2.4386    1.0782 H         1 <0>         0.0311
     72 H29        -0.8000    0.6794    0.6761 H         1 <0>         0.0661
     73 H30         2.0342   -3.3788    0.8441 H         1 <0>         0.0640
     74 H31        -0.4069   -3.5537    1.0044 H         1 <0>         0.0655
     75 H32        11.3422   -1.7060   -1.1054 H         1 <0>         0.0231
     76 H33        10.3277   -3.0375   -0.4994 H         1 <0>         0.0231
     77 H34        10.4616   -2.7262   -2.2275 H         1 <0>         0.0231
     78 H35         8.5682   -1.4857    1.9661 H         1 <0>         0.2113
     79 H36         0.0705    2.0863   -1.4485 H         1 <0>         0.0233
     80 H37         0.1677    3.7952   -0.9922 H         1 <0>         0.0233
     81 H38         1.5976    2.9633   -1.6253 H         1 <0>         0.0233
@<TRIPOS>BOND
     1    1   21 1
     2    1   38 1
     3    2   34 1
     4    2   36 1
     5    3   21 2
     6    4   26 1
     7    4   78 1
     8    5   31 2
     9    6   36 2
    10    7   11 1
    11    7   14 1
    12    7   15 1
    13    8   16 1
    14    8   17 1
    15    8   21 am
    16    9   22 1
    17    9   24 1
    18    9   31 am
    19   10   27 ar
    20   10   35 ar
    21   11   12 1
    22   11   13 1
    23   11   44 1
    24   12   16 1
    25   12   45 1
    26   12   46 1
    27   13   17 1
    28   13   47 1
    29   13   48 1
    30   14   18 1
    31   14   49 1
    32   14   50 1
    33   15   19 1
    34   15   51 1
    35   15   52 1
    36   16   53 1
    37   16   54 1
    38   17   55 1
    39   17   56 1
    40   18   20 1
    41   18   57 1
    42   18   58 1
    43   19   20 1
    44   19   59 1
    45   19   60 1
    46   20   61 1
    47   20   62 1
    48   22   27 1
    49   22   30 2
    50   23   24 1
    51   23   27 ar
    52   23   29 ar
    53   24   63 1
    54   24   64 1
    55   25   26 1
    56   25   28 2
    57   25   30 1
    58   26   33 1
    59   26   36 1
    60   28   31 1
    61   28   34 1
    62   29   32 ar
    63   29   37 1
    64   30   65 1
    65   32   35 ar
    66   32   39 ar
    67   33   42 1
    68   33   66 1
    69   33   67 1
    70   34   68 1
    71   34   69 1
    72   35   40 ar
    73   37   43 1
    74   37   70 1
    75   37   71 1
    76   38   39 ar
    77   38   41 ar
    78   39   72 1
    79   40   41 ar
    80   40   73 1
    81   41   74 1
    82   42   75 1
    83   42   76 1
    84   42   77 1
    85   43   79 1
    86   43   80 1
    87   43   81 1
