@<TRIPOS>MOLECULE
DB00145
   10     9     0     0     0
SMALL
USER_CHARGES

@<TRIPOS>ATOM
      1 O1          1.9643    0.3380    0.0040 O.3       1 <0>        -0.4797
      2 O2          0.6376   -1.5063   -0.0178 O.2       1 <0>        -0.2496
      3 N1         -1.6349   -0.0959    0.0108 N.3       1 <0>        -0.3209
      4 C1         -0.3989    0.6698   -0.0035 C.3       1 <0>         0.0918
      5 C2          0.7602   -0.2879   -0.0199 C.2       1 <0>         0.3185
      6 H1         -0.3404    1.2943    0.8921 H         1 <0>         0.0537
      7 H2         -0.3613    1.2986   -0.8971 H         1 <0>         0.0537
      8 H3         -1.6572   -0.7064    0.8266 H         1 <0>         0.1187
      9 H4         -1.6781   -0.7032   -0.8066 H         1 <0>         0.1187
     10 H5          2.7087   -0.3009    0.0114 H         1 <0>         0.2951
@<TRIPOS>BOND
     1    1    5 1
     2    1   10 1
     3    2    5 2
     4    3    4 1
     5    3    8 1
     6    3    9 1
     7    4    5 1
     8    4    6 1
     9    4    7 1
