@<TRIPOS>MOLECULE
DB00754
   27    28     0     0     0
SMALL
USER_CHARGES

@<TRIPOS>ATOM
      1 O1          0.8157    0.0546    2.1123 O.2       1 <0>        -0.2727
      2 O2          2.3227   -1.6220   -1.9049 O.2       1 <0>        -0.2522
      3 N1          1.9316   -0.6323    0.1784 N.am      1 <0>        -0.2245
      4 N2          0.2696   -1.7498   -0.8031 N.am      1 <0>        -0.2836
      5 C1         -0.3116   -1.2972    0.4379 C.3       1 <0>         0.1267
      6 C2          0.8598   -0.5353    1.0403 C.2       1 <0>         0.2479
      7 C3         -1.4938   -0.4272    0.2132 C.ar      1 <0>        -0.0183
      8 C4          1.6028   -1.3598   -0.9501 C.2       1 <0>         0.3094
      9 C5          3.2350   -0.0400    0.4035 C.3       1 <0>         0.0211
     10 C6         -2.7841   -0.9620    0.2783 C.ar      1 <0>        -0.0563
     11 C7         -1.3247    0.9325   -0.0655 C.ar      1 <0>        -0.0563
     12 C8          3.3134    1.3615   -0.1656 C.3       1 <0>        -0.0488
     13 C9         -3.8946   -0.1447    0.0668 C.ar      1 <0>        -0.0614
     14 C10        -2.4352    1.7497   -0.2766 C.ar      1 <0>        -0.0614
     15 C11        -3.7201    1.2112   -0.2104 C.ar      1 <0>        -0.0617
     16 H1         -0.5296   -2.1688    1.0639 H         1 <0>         0.0646
     17 H2         -0.2244   -2.3138   -1.4878 H         1 <0>         0.1513
     18 H3          3.4245   -0.0086    1.4818 H         1 <0>         0.0467
     19 H4          3.9964   -0.6709   -0.0672 H         1 <0>         0.0467
     20 H5         -2.9343   -2.0171    0.4920 H         1 <0>         0.0621
     21 H6         -0.3402    1.3846   -0.1451 H         1 <0>         0.0621
     22 H7          3.1331    1.3590   -1.2457 H         1 <0>         0.0245
     23 H8          2.5649    2.0155    0.2942 H         1 <0>         0.0245
     24 H9          4.3025    1.7932    0.0153 H         1 <0>         0.0245
     25 H10        -4.8952   -0.5641    0.1176 H         1 <0>         0.0618
     26 H11        -2.2995    2.8045   -0.4972 H         1 <0>         0.0618
     27 H12        -4.5848    1.8472   -0.3763 H         1 <0>         0.0618
@<TRIPOS>BOND
     1    1    6 2
     2    2    8 2
     3    3    6 am
     4    3    8 am
     5    3    9 1
     6    4    5 1
     7    4    8 am
     8    4   17 1
     9    5    6 1
    10    5    7 1
    11    5   16 1
    12    7   10 ar
    13    7   11 ar
    14    9   12 1
    15    9   18 1
    16    9   19 1
    17   10   13 ar
    18   10   20 1
    19   11   14 ar
    20   11   21 1
    21   12   22 1
    22   12   23 1
    23   12   24 1
    24   13   15 ar
    25   13   25 1
    26   14   15 ar
    27   14   26 1
    28   15   27 1
