@<TRIPOS>MOLECULE
DB00833
   38    40     0     0     0
SMALL
USER_CHARGES

@<TRIPOS>ATOM
      1 Cl1        -4.8794    2.8314   -0.2536 Cl        1 <0>        -0.0852
      2 S1         -0.9865    1.2667    0.8846 S.3       1 <0>        -0.1299
      3 O1         -2.8204   -2.6633   -0.8280 O.2       1 <0>        -0.2731
      4 O2          1.5228   -2.0567    1.7638 O.2       1 <0>        -0.2737
      5 O3         -5.8877   -0.5368   -0.2539 O.3       1 <0>        -0.4762
      6 O4         -4.8126   -0.1995   -2.2440 O.2       1 <0>        -0.2437
      7 N1         -2.8174   -0.5420    0.2017 N.am      1 <0>        -0.2480
      8 N2          0.0948   -1.4779    0.0312 N.am      1 <0>        -0.3002
      9 N3          3.5389   -2.5046   -0.0710 N.3       1 <0>        -0.3163
     10 C1         -1.8464   -0.2819    1.2511 C.3       1 <0>         0.1043
     11 C2         -1.1490   -1.5813    0.7932 C.3       1 <0>         0.1284
     12 C3         -2.4073   -1.7932   -0.0978 C.2       1 <0>         0.2440
     13 C4         -3.7663    0.3508   -0.1818 C.2       1 <0>         0.1372
     14 C5         -2.5174    2.2653    0.9420 C.3       1 <0>         0.0333
     15 C6         -3.6730    1.6504    0.1749 C.2       1 <0>         0.0567
     16 C7          1.3489   -1.7288    0.5910 C.2       1 <0>         0.2350
     17 C8          2.4918   -1.5329   -0.3991 C.3       1 <0>         0.1079
     18 C9         -4.8576   -0.1510   -1.0318 C.2       1 <0>         0.3525
     19 C10         2.9975   -0.1056   -0.3644 C.ar      1 <0>        -0.0219
     20 C11         2.4273    0.8324   -1.2064 C.ar      1 <0>        -0.0566
     21 C12         4.0178    0.2274    0.5087 C.ar      1 <0>        -0.0566
     22 C13         2.8928    2.1468   -1.1744 C.ar      1 <0>        -0.0614
     23 C14         4.4831    1.5419    0.5407 C.ar      1 <0>        -0.0614
     24 C15         3.9205    2.5017   -0.3010 C.ar      1 <0>        -0.0617
     25 H1         -2.2796   -0.3423    2.2567 H         1 <0>         0.0644
     26 H2         -1.0838   -2.3392    1.5838 H         1 <0>         0.0622
     27 H3          0.0593   -1.1997   -0.9466 H         1 <0>         0.1496
     28 H4         -2.2592    3.2453    0.5267 H         1 <0>         0.0435
     29 H5         -2.8060    2.4095    1.9888 H         1 <0>         0.0435
     30 H6          2.1415   -1.7711   -1.4115 H         1 <0>         0.0605
     31 H7          4.2846   -2.4475   -0.7643 H         1 <0>         0.1192
     32 H8          3.1619   -3.4491   -0.1467 H         1 <0>         0.1192
     33 H9          1.6267    0.5666   -1.8904 H         1 <0>         0.0621
     34 H10         4.4633   -0.4917    1.1892 H         1 <0>         0.0621
     35 H11        -6.6405   -0.8796   -0.7811 H         1 <0>         0.2954
     36 H12         2.4543    2.8943   -1.8291 H         1 <0>         0.0618
     37 H13         5.2804    1.8197    1.2239 H         1 <0>         0.0618
     38 H14         4.2820    3.5255   -0.2749 H         1 <0>         0.0618
@<TRIPOS>BOND
     1    1   15 1
     2    2   10 1
     3    2   14 1
     4    3   12 2
     5    4   16 2
     6    5   18 1
     7    5   35 1
     8    6   18 2
     9    7   10 1
    10    7   12 am
    11    7   13 1
    12    8   11 1
    13    8   16 am
    14    8   27 1
    15    9   17 1
    16    9   31 1
    17    9   32 1
    18   10   11 1
    19   10   25 1
    20   11   12 1
    21   11   26 1
    22   13   15 2
    23   13   18 1
    24   14   15 1
    25   14   28 1
    26   14   29 1
    27   16   17 1
    28   17   19 1
    29   17   30 1
    30   19   20 ar
    31   19   21 ar
    32   20   22 ar
    33   20   33 1
    34   21   23 ar
    35   21   34 1
    36   22   24 ar
    37   22   36 1
    38   23   24 ar
    39   23   37 1
    40   24   38 1
