@<TRIPOS>MOLECULE
DB00436
   41    43     0     0     0
SMALL
USER_CHARGES

@<TRIPOS>ATOM
      1 S1         -0.4807   -2.7949    0.0844 S.o2      1 <0>         0.0618
      2 S2         -5.1714   -0.1221    0.0875 S.o2      1 <0>         0.0566
      3 F1         -2.7271    3.3491   -1.2427 F         1 <0>        -0.1658
      4 F2         -4.4960    2.2228   -1.7961 F         1 <0>        -0.1658
      5 F3         -4.1621    2.7649    0.2832 F         1 <0>        -0.1658
      6 O1         -1.2386   -3.8572   -0.5475 O.2       1 <0>        -0.1529
      7 O2         -0.1664   -2.8316    1.4985 O.2       1 <0>        -0.1529
      8 O3         -5.7689    0.9407   -0.7067 O.2       1 <0>        -0.1532
      9 O4         -5.6492   -1.4894   -0.0527 O.2       1 <0>        -0.1532
     10 N1          0.9372   -2.5429   -0.8256 N.pl3     1 <0>        -0.1696
     11 N2          0.7149   -0.0988   -0.8676 N.pl3     1 <0>        -0.3256
     12 N3         -5.2346    0.3170    1.7368 N.pl3     1 <0>        -0.2035
     13 C1          1.6100   -1.2301   -0.7138 C.3       1 <0>         0.0953
     14 C2         -1.3391   -1.2818   -0.1951 C.ar      1 <0>         0.1279
     15 C3         -0.6449   -0.1397   -0.6159 C.ar      1 <0>         0.0556
     16 C4          2.3851   -1.1203    0.5920 C.3       1 <0>         0.0056
     17 C5         -2.7215   -1.2797    0.0164 C.ar      1 <0>        -0.0066
     18 C6         -1.4053    1.0243   -0.8208 C.ar      1 <0>        -0.0254
     19 C7         -3.4445   -0.1097   -0.1913 C.ar      1 <0>         0.1186
     20 C8         -2.7873    1.0429   -0.6098 C.ar      1 <0>         0.0829
     21 C9          3.4974   -0.1119    0.4947 C.ar      1 <0>        -0.0443
     22 C10        -3.5277    2.3199   -0.8392 C.3       1 <0>         0.4193
     23 C11         4.7568   -0.5203    0.0765 C.ar      1 <0>        -0.0585
     24 C12         3.2500    1.2137    0.8247 C.ar      1 <0>        -0.0585
     25 C13         5.7880    0.4146   -0.0133 C.ar      1 <0>        -0.0615
     26 C14         4.2813    2.1487    0.7349 C.ar      1 <0>        -0.0615
     27 C15         5.5503    1.7491    0.3158 C.ar      1 <0>        -0.0617
     28 H1          2.3144   -1.1946   -1.5554 H         1 <0>         0.0685
     29 H2          0.9736   -2.9626   -1.7634 H         1 <0>         0.1501
     30 H3          1.1221    0.7922   -1.1301 H         1 <0>         0.1477
     31 H4          2.8194   -2.0932    0.8602 H         1 <0>         0.0345
     32 H5          1.7260   -0.8576    1.4299 H         1 <0>         0.0345
     33 H6         -3.2172   -2.1850    0.3554 H         1 <0>         0.0657
     34 H7         -0.8970    1.9284   -1.1530 H         1 <0>         0.0643
     35 H8          4.9521   -1.5566   -0.1843 H         1 <0>         0.0620
     36 H9          2.2668    1.5365    1.1552 H         1 <0>         0.0620
     37 H10        -5.5866    1.2539    1.9678 H         1 <0>         0.1442
     38 H11        -5.5047   -0.4073    2.4134 H         1 <0>         0.1442
     39 H12         6.7760    0.1037   -0.3403 H         1 <0>         0.0618
     40 H13         4.0964    3.1876    0.9917 H         1 <0>         0.0618
     41 H14         6.3532    2.4771    0.2456 H         1 <0>         0.0618
@<TRIPOS>BOND
     1    1    6 2
     2    1    7 2
     3    1   10 1
     4    1   14 1
     5    2    8 2
     6    2    9 2
     7    2   12 1
     8    2   19 1
     9    3   22 1
    10    4   22 1
    11    5   22 1
    12   10   13 1
    13   10   29 1
    14   11   13 1
    15   11   15 1
    16   11   30 1
    17   12   37 1
    18   12   38 1
    19   13   16 1
    20   13   28 1
    21   14   15 ar
    22   14   17 ar
    23   15   18 ar
    24   16   21 1
    25   16   31 1
    26   16   32 1
    27   17   19 ar
    28   17   33 1
    29   18   20 ar
    30   18   34 1
    31   19   20 ar
    32   20   22 1
    33   21   23 ar
    34   21   24 ar
    35   23   25 ar
    36   23   35 1
    37   24   26 ar
    38   24   36 1
    39   25   27 ar
    40   25   39 1
    41   26   27 ar
    42   26   40 1
    43   27   41 1
