@<TRIPOS>MOLECULE
DB00523
   50    50     0     0     0
SMALL
USER_CHARGES

@<TRIPOS>ATOM
      1 O1          8.4248   -0.4915    0.9628 O.3       1 <0>        -0.4775
      2 O2          7.3091   -2.2353    0.0123 O.2       1 <0>        -0.2458
      3 C1         -3.8139    0.1606    0.5353 C.3       1 <0>        -0.0099
      4 C2         -4.8012   -1.0208    0.3304 C.3       1 <0>        -0.0436
      5 C3         -4.1022   -2.3679    0.3730 C.3       1 <0>        -0.0486
      6 C4         -2.5227   -0.0258   -0.2959 C.2       1 <0>        -0.0427
      7 C5         -3.0588   -2.4488   -0.7310 C.3       1 <0>        -0.0314
      8 C6         -2.2058   -1.2058   -0.8859 C.2       1 <0>        -0.0689
      9 C7         -3.4529    0.2596    2.0354 C.3       1 <0>        -0.0558
     10 C8         -4.5884    1.4386    0.1302 C.3       1 <0>        -0.0558
     11 C9         -1.6569    1.1390   -0.3823 C.2       1 <0>        -0.0579
     12 C10        -0.9972   -1.4609   -1.7567 C.3       1 <0>        -0.0432
     13 C11        -0.3185    1.0674   -0.2987 C.2       1 <0>        -0.0586
     14 C12         0.6149    2.1917   -0.3755 C.2       1 <0>        -0.0504
     15 C13         0.0274    3.5715   -0.5662 C.3       1 <0>        -0.0397
     16 C14         1.9574    2.0708   -0.2860 C.2       1 <0>        -0.0588
     17 C15         2.7468    0.8655   -0.1060 C.2       1 <0>        -0.0613
     18 C16         4.0892    0.8850   -0.0324 C.2       1 <0>        -0.0586
     19 C17         4.9779   -0.2701    0.1416 C.2       1 <0>        -0.0437
     20 C18         4.3310   -1.6247    0.2757 C.3       1 <0>        -0.0395
     21 C19         6.3058   -0.0416    0.1921 C.2       1 <0>         0.0252
     22 C20         7.3571   -1.0695    0.3617 C.2       1 <0>         0.3298
     23 H1         -5.3077   -0.9222   -0.6401 H         1 <0>         0.0274
     24 H2         -5.5915   -0.9970    1.0915 H         1 <0>         0.0274
     25 H3         -4.8338   -3.1743    0.2459 H         1 <0>         0.0269
     26 H4         -3.6306   -2.5262    1.3495 H         1 <0>         0.0269
     27 H5         -3.5611   -2.6411   -1.6879 H         1 <0>         0.0310
     28 H6         -2.4165   -3.3152   -0.5289 H         1 <0>         0.0310
     29 H7         -2.8716   -0.6051    2.3733 H         1 <0>         0.0238
     30 H8         -2.8555    1.1544    2.2458 H         1 <0>         0.0238
     31 H9         -4.3543    0.3199    2.6559 H         1 <0>         0.0238
     32 H10        -5.5741    1.4665    0.6105 H         1 <0>         0.0238
     33 H11        -4.0704    2.3539    0.4364 H         1 <0>         0.0238
     34 H12        -4.7470    1.4822   -0.9536 H         1 <0>         0.0238
     35 H13        -2.1406    2.0912   -0.5654 H         1 <0>         0.0621
     36 H14        -0.1922   -1.9220   -1.1759 H         1 <0>         0.0275
     37 H15        -0.6267   -0.5672   -2.2650 H         1 <0>         0.0275
     38 H16        -1.2599   -2.1556   -2.5638 H         1 <0>         0.0275
     39 H17         0.1329    0.1074   -0.0738 H         1 <0>         0.0620
     40 H18        -0.6425    3.8261    0.2626 H         1 <0>         0.0278
     41 H19         0.7968    4.3509   -0.6042 H         1 <0>         0.0278
     42 H20        -0.5307    3.6289   -1.5071 H         1 <0>         0.0278
     43 H21         2.5502    2.9834   -0.3562 H         1 <0>         0.0620
     44 H22         2.2181   -0.0777   -0.0409 H         1 <0>         0.0618
     45 H23         4.5900    1.8506   -0.1088 H         1 <0>         0.0620
     46 H24         3.8409   -1.9096   -0.6617 H         1 <0>         0.0278
     47 H25         5.0294   -2.4221    0.5347 H         1 <0>         0.0278
     48 H26         3.5822   -1.6181    1.0761 H         1 <0>         0.0278
     49 H27         6.6828    0.9777    0.1233 H         1 <0>         0.0691
     50 H28         9.1607   -1.1269    1.0938 H         1 <0>         0.2954
@<TRIPOS>BOND
     1    1   22 1
     2    1   50 1
     3    2   22 2
     4    3    4 1
     5    3    6 1
     6    3    9 1
     7    3   10 1
     8    4    5 1
     9    4   23 1
    10    4   24 1
    11    5    7 1
    12    5   25 1
    13    5   26 1
    14    6    8 2
    15    6   11 1
    16    7    8 1
    17    7   27 1
    18    7   28 1
    19    8   12 1
    20    9   29 1
    21    9   30 1
    22    9   31 1
    23   10   32 1
    24   10   33 1
    25   10   34 1
    26   11   13 2
    27   11   35 1
    28   12   36 1
    29   12   37 1
    30   12   38 1
    31   13   14 1
    32   13   39 1
    33   14   15 1
    34   14   16 2
    35   15   40 1
    36   15   41 1
    37   15   42 1
    38   16   17 1
    39   16   43 1
    40   17   18 2
    41   17   44 1
    42   18   19 1
    43   18   45 1
    44   19   20 1
    45   19   21 2
    46   20   46 1
    47   20   47 1
    48   20   48 1
    49   21   22 1
    50   21   49 1
