@<TRIPOS>MOLECULE
DB00282
   24    23     0     0     0
SMALL
USER_CHARGES

@<TRIPOS>ATOM
      1 P1          1.2187    1.4732    0.3532 P.3       1 <0>         0.3675
      2 P2          1.2047   -1.5842   -0.7016 P.3       1 <0>         0.1774
      3 O1          1.1841   -0.6864    1.7041 O.3       1 <0>        -0.3695
      4 O2          2.8206    1.3103    0.5018 O.3       1 <0>        -0.3218
      5 O3          1.0379    1.8500   -1.2073 O.3       1 <0>        -0.3218
      6 O4          2.8050   -1.4851   -0.4046 O.3       1 <0>        -0.3511
      7 O5          0.5870    2.4311    1.3191 O.2       1 <0>        -0.2553
      8 O6          0.9294   -1.1377   -2.1193 O.3       1 <0>        -0.7791
      9 O7          0.6953   -2.9060   -0.1715 O.2       1 <0>        -0.3035
     10 N1         -3.1840    0.0906   -0.1377 N.4       1 <0>         0.2186
     11 C1          0.6054   -0.2445    0.4659 C.3       1 <0>         0.2343
     12 C2         -0.9185   -0.2991    0.6917 C.3       1 <0>         0.0357
     13 C3         -1.7457    0.1332   -0.5074 C.3       1 <0>        -0.0316
     14 H1         -1.2074   -1.3185    0.9795 H         1 <0>         0.0356
     15 H2         -1.1722    0.3273    1.5573 H         1 <0>         0.0356
     16 H3         -1.5351    1.1616   -0.8095 H         1 <0>         0.0814
     17 H4         -1.6220   -0.5382   -1.3605 H         1 <0>         0.0814
     18 H5          0.8810   -1.5951    1.8710 H         1 <0>         0.2116
     19 H6         -3.4769   -0.8560    0.1391 H         1 <0>         0.1994
     20 H7         -3.7772    0.3756   -0.9282 H         1 <0>         0.1994
     21 H8         -3.3937    0.7234    0.6459 H         1 <0>         0.1994
     22 H9          3.3808    2.1155    0.5097 H         1 <0>         0.2198
     23 H10         1.2748    2.7528   -1.5088 H         1 <0>         0.2198
     24 H11         3.4080   -2.0939   -0.8820 H         1 <0>         0.2167
@<TRIPOS>BOND
     1    1    4 1
     2    1    5 1
     3    1    7 2
     4    1   11 1
     5    2    6 1
     6    2    8 1
     7    2    9 2
     8    2   11 1
     9    3   11 1
    10    3   18 1
    11    4   22 1
    12    5   23 1
    13    6   24 1
    14   10   13 1
    15   10   19 1
    16   10   20 1
    17   10   21 1
    18   11   12 1
    19   12   13 1
    20   12   14 1
    21   12   15 1
    22   13   16 1
    23   13   17 1
