@<TRIPOS>MOLECULE
DB00234
   46    48     0     0     0
SMALL
USER_CHARGES

@<TRIPOS>ATOM
      1 O1         -2.3889   -0.4200   -0.8033 O.3       1 <0>        -0.3700
      2 O2          0.0746    0.7106    0.0012 O.3       1 <0>        -0.4779
      3 O3          2.5559   -0.2029   -0.8563 O.3       1 <0>        -0.4886
      4 N1         -3.9517    1.8935   -0.2567 N.3       1 <0>        -0.3112
      5 C1         -2.2525    0.2642    0.4481 C.3       1 <0>         0.1120
      6 C2         -0.8171    0.0843    0.9224 C.3       1 <0>         0.1525
      7 C3         -2.5918    1.7463    0.2677 C.3       1 <0>         0.0261
      8 C4         -4.0917    1.1536   -1.5116 C.3       1 <0>         0.0195
      9 C5         -3.7220   -0.3099   -1.3048 C.3       1 <0>         0.0607
     10 C6         -0.4423   -1.3728    1.0621 C.ar      1 <0>        -0.0048
     11 C7         -0.6523   -2.0138    2.2722 C.ar      1 <0>        -0.0550
     12 C8          0.1033   -2.0398   -0.0226 C.ar      1 <0>        -0.0550
     13 C9          1.2263    1.2335    0.5224 C.ar      1 <0>         0.1629
     14 C10        -0.3067   -3.3590    2.4012 C.ar      1 <0>        -0.0614
     15 C11         0.4489   -3.3849    0.1065 C.ar      1 <0>        -0.0614
     16 C12         2.4665    0.7723    0.0904 C.ar      1 <0>         0.1619
     17 C13         0.2438   -4.0445    1.3184 C.ar      1 <0>        -0.0617
     18 C14         1.1431    2.2312    1.4897 C.ar      1 <0>        -0.0163
     19 C15         3.6334    1.3136    0.6301 C.ar      1 <0>        -0.0163
     20 C16         2.3100    2.7723    2.0292 C.ar      1 <0>        -0.0581
     21 C17         3.5551    2.3136    1.5995 C.ar      1 <0>        -0.0581
     22 C18         3.2415    0.1259   -2.0631 C.3       1 <0>         0.0870
     23 C19         2.6603   -0.6896   -3.1983 C.3       1 <0>        -0.0307
     24 H1         -2.9379   -0.1991    1.1715 H         1 <0>         0.0649
     25 H2         -0.7390    0.5530    1.9125 H         1 <0>         0.0811
     26 H3         -2.5202    2.2682    1.2280 H         1 <0>         0.0451
     27 H4         -1.8980    2.2338   -0.4277 H         1 <0>         0.0451
     28 H5         -3.4422    1.6018   -2.2732 H         1 <0>         0.0446
     29 H6         -5.1243    1.2291   -1.8670 H         1 <0>         0.0446
     30 H7         -4.4140   -0.8094   -0.6160 H         1 <0>         0.0573
     31 H8         -3.7627   -0.8437   -2.2596 H         1 <0>         0.0573
     32 H9         -4.1479    2.8804   -0.4200 H         1 <0>         0.1221
     33 H10        -1.0825   -1.4895    3.1205 H         1 <0>         0.0621
     34 H11         0.2455   -1.5601   -0.9859 H         1 <0>         0.0621
     35 H12        -0.4673   -3.8728    3.3445 H         1 <0>         0.0618
     36 H13         0.8713   -3.9206   -0.7386 H         1 <0>         0.0618
     37 H14         0.5113   -5.0924    1.4184 H         1 <0>         0.0618
     38 H15         0.1833    2.6174    1.8211 H         1 <0>         0.0655
     39 H16         4.6104    0.9609    0.3112 H         1 <0>         0.0655
     40 H17         2.2492    3.5542    2.7805 H         1 <0>         0.0619
     41 H18         4.4635    2.7344    2.0202 H         1 <0>         0.0619
     42 H19         3.1379    1.1931   -2.2960 H         1 <0>         0.0694
     43 H20         4.3046   -0.1084   -1.9431 H         1 <0>         0.0694
     44 H21         3.1732   -0.4722   -4.1393 H         1 <0>         0.0262
     45 H22         2.7467   -1.7607   -2.9874 H         1 <0>         0.0262
     46 H23         1.5933   -0.4749   -3.3192 H         1 <0>         0.0262
@<TRIPOS>BOND
     1    1    5 1
     2    1    9 1
     3    2    6 1
     4    2   13 1
     5    3   16 1
     6    3   22 1
     7    4    7 1
     8    4    8 1
     9    4   32 1
    10    5    6 1
    11    5    7 1
    12    5   24 1
    13    6   10 1
    14    6   25 1
    15    7   26 1
    16    7   27 1
    17    8    9 1
    18    8   28 1
    19    8   29 1
    20    9   30 1
    21    9   31 1
    22   10   11 ar
    23   10   12 ar
    24   11   14 ar
    25   11   33 1
    26   12   15 ar
    27   12   34 1
    28   13   16 ar
    29   13   18 ar
    30   14   17 ar
    31   14   35 1
    32   15   17 ar
    33   15   36 1
    34   16   19 ar
    35   17   37 1
    36   18   20 ar
    37   18   38 1
    38   19   21 ar
    39   19   39 1
    40   20   21 ar
    41   20   40 1
    42   21   41 1
    43   22   23 1
    44   22   42 1
    45   22   43 1
    46   23   44 1
    47   23   45 1
    48   23   46 1
