@<TRIPOS>MOLECULE
DB00298
   51    54     0     0     0
SMALL
USER_CHARGES

@<TRIPOS>ATOM
      1 N1          0.2781   -1.3154   -0.3788 N.3       1 <0>        -0.2990
      2 N2          2.9424   -0.3631    0.0132 N.pl3     1 <0>        -0.3272
      3 N3         -4.2400   -0.4130    0.1453 N.pl3     1 <0>        -0.3147
      4 N4         -4.2074   -2.4954   -0.4909 N.2       1 <0>        -0.1343
      5 N5         -5.4839   -2.0002   -0.6906 N.2       1 <0>        -0.1344
      6 C1          0.5785   -0.3728    0.7057 C.3       1 <0>         0.0147
      7 C2          1.1464   -1.0440   -1.5311 C.3       1 <0>         0.0147
      8 C3         -1.1296   -1.2226   -0.7642 C.3       1 <0>         0.0059
      9 C4          2.0357   -0.4995    1.1571 C.3       1 <0>         0.0250
     10 C5          2.6220   -1.1941   -1.1542 C.3       1 <0>         0.0250
     11 C6         -2.0448   -1.5953    0.4039 C.3       1 <0>         0.0202
     12 C7         -3.8649    0.8684    0.6995 C.3       1 <0>         0.0261
     13 C8         -3.4764   -1.5253    0.0136 C.cat     1 <0>         0.1347
     14 C9         -4.8846    1.9588    0.3644 C.3       1 <0>        -0.0345
     15 C10        -6.3161    1.4494    0.5616 C.3       1 <0>        -0.0446
     16 C11        -6.6012    0.2416   -0.3378 C.3       1 <0>         0.0075
     17 C12        -5.4898   -0.7429   -0.2992 C.cat     1 <0>         0.1335
     18 C13         4.2815   -0.0172    0.2263 C.ar      1 <0>         0.0327
     19 C14         4.8454    1.1511   -0.3274 C.ar      1 <0>        -0.0294
     20 C15         5.1122   -0.8418    1.0122 C.ar      1 <0>        -0.0404
     21 C16         6.1825    1.4800   -0.1043 C.ar      1 <0>        -0.0571
     22 C17         4.0098    2.0606   -1.1684 C.3       1 <0>        -0.0380
     23 C18         6.4492   -0.5127    1.2354 C.ar      1 <0>        -0.0600
     24 C19         6.9844    0.6480    0.6771 C.ar      1 <0>        -0.0614
     25 H1         -0.0132   -0.5665    1.6034 H         1 <0>         0.0442
     26 H2          0.3778    0.6604    0.3916 H         1 <0>         0.0442
     27 H3          0.9692   -0.0322   -1.9208 H         1 <0>         0.0442
     28 H4          0.9277   -1.7493   -2.3420 H         1 <0>         0.0442
     29 H5         -1.3715   -0.2167   -1.1331 H         1 <0>         0.0431
     30 H6         -1.3266   -1.9156   -1.5931 H         1 <0>         0.0431
     31 H7          2.2431    0.2813    1.8994 H         1 <0>         0.0476
     32 H8          2.1958   -1.4705    1.6428 H         1 <0>         0.0476
     33 H9          2.8500   -2.2434   -0.9272 H         1 <0>         0.0476
     34 H10         3.2356   -0.9056   -2.0163 H         1 <0>         0.0476
     35 H11        -1.9104   -0.9534    1.2781 H         1 <0>         0.0356
     36 H12        -1.8217   -2.6182    0.7337 H         1 <0>         0.0356
     37 H13        -2.8796    1.1452    0.3123 H         1 <0>         0.0493
     38 H14        -3.7950    0.7331    1.7848 H         1 <0>         0.0493
     39 H15        -4.7561    2.2746   -0.6787 H         1 <0>         0.0282
     40 H16        -4.7048    2.8386    0.9917 H         1 <0>         0.0282
     41 H17        -7.0339    2.2482    0.3444 H         1 <0>         0.0270
     42 H18        -6.4565    1.1680    1.6131 H         1 <0>         0.0270
     43 H19        -6.7323    0.5794   -1.3726 H         1 <0>         0.0344
     44 H20        -7.5381   -0.2352   -0.0299 H         1 <0>         0.0344
     45 H21         4.7174   -1.7547    1.4529 H         1 <0>         0.0636
     46 H22         6.6158    2.3797   -0.5329 H         1 <0>         0.0621
     47 H23         4.5302    2.9983   -1.3921 H         1 <0>         0.0278
     48 H24         3.7651    1.5819   -2.1218 H         1 <0>         0.0278
     49 H25         3.0829    2.3274   -0.6492 H         1 <0>         0.0278
     50 H26         7.0740   -1.1611    1.8427 H         1 <0>         0.0618
     51 H27         8.0256    0.9036    0.8504 H         1 <0>         0.0618
@<TRIPOS>BOND
     1    1    6 1
     2    1    7 1
     3    1    8 1
     4    2    9 1
     5    2   10 1
     6    2   18 1
     7    3   12 1
     8    3   13 1
     9    3   17 2
    10    4    5 2
    11    4   13 1
    12    5   17 1
    13    6    9 1
    14    6   25 1
    15    6   26 1
    16    7   10 1
    17    7   27 1
    18    7   28 1
    19    8   11 1
    20    8   29 1
    21    8   30 1
    22    9   31 1
    23    9   32 1
    24   10   33 1
    25   10   34 1
    26   11   13 1
    27   11   35 1
    28   11   36 1
    29   12   14 1
    30   12   37 1
    31   12   38 1
    32   14   15 1
    33   14   39 1
    34   14   40 1
    35   15   16 1
    36   15   41 1
    37   15   42 1
    38   16   17 1
    39   16   43 1
    40   16   44 1
    41   18   19 ar
    42   18   20 ar
    43   19   21 ar
    44   19   22 1
    45   20   23 ar
    46   20   45 1
    47   21   24 ar
    48   21   46 1
    49   22   47 1
    50   22   48 1
    51   22   49 1
    52   23   24 ar
    53   23   50 1
    54   24   51 1
