@<TRIPOS>MOLECULE
DB00287
   70    71     0     0     0
SMALL
USER_CHARGES

@<TRIPOS>ATOM
      1 F1          3.5361   -1.1940   -4.3216 F         1 <0>        -0.1659
      2 F2          1.8197   -0.0609   -3.6334 F         1 <0>        -0.1659
      3 F3          3.7223    0.1154   -2.5955 F         1 <0>        -0.1659
      4 O1         -5.1955    0.7795   -1.8252 O.3       1 <0>        -0.3914
      5 O2         -5.9187   -0.7059    1.3442 O.3       1 <0>        -0.3911
      6 O3         -1.7864   -3.7949    3.0373 O.3       1 <0>        -0.3844
      7 O4          0.8363   -2.4289    0.9403 O.3       1 <0>        -0.4891
      8 O5          3.2657    1.8630    1.5470 O.3       1 <0>        -0.4619
      9 O6          3.1465    3.0358   -0.4362 O.2       1 <0>        -0.2508
     10 C1         -3.1888    0.7980   -0.4059 C.3       1 <0>        -0.0029
     11 C2         -3.6802   -0.3720    0.4618 C.3       1 <0>         0.0087
     12 C3         -4.4998    1.4834   -0.8034 C.3       1 <0>         0.0613
     13 C4         -4.8496    0.2285    1.2624 C.3       1 <0>         0.0641
     14 C5         -5.3120    1.4754    0.4914 C.3       1 <0>         0.0001
     15 C6         -2.3477    0.3591   -1.5945 C.3       1 <0>        -0.0290
     16 C7         -2.6212   -0.9424    1.3526 C.2       1 <0>        -0.0795
     17 C8         -1.9458    1.5318   -2.4381 C.2       1 <0>        -0.0876
     18 C9         -2.2365   -2.2270    1.3275 C.2       1 <0>        -0.0562
     19 C10        -1.1736   -2.7977    2.2241 C.3       1 <0>         0.1073
     20 C11        -0.8395    2.2597   -2.2259 C.2       1 <0>        -0.0879
     21 C12         0.1334    1.9883   -1.1155 C.3       1 <0>        -0.0343
     22 C13        -0.0430   -3.4353    1.4206 C.3       1 <0>         0.1189
     23 C14         0.2846    3.1676   -0.1455 C.3       1 <0>        -0.0395
     24 C15         1.2229    2.9044    1.0342 C.3       1 <0>         0.0452
     25 C16         1.4936   -2.6898   -0.2344 C.ar      1 <0>         0.1212
     26 C17         2.6417    2.6202    0.5985 C.2       1 <0>         0.3073
     27 C18         1.8450   -1.6416   -1.0848 C.ar      1 <0>        -0.0083
     28 C19         1.8103   -4.0038   -0.5791 C.ar      1 <0>        -0.0199
     29 C20         4.6343    1.5426    1.2779 C.3       1 <0>         0.0975
     30 C21         2.5128   -1.9073   -2.2802 C.ar      1 <0>         0.0583
     31 C22         2.4784   -4.2696   -1.7745 C.ar      1 <0>        -0.0578
     32 C23         2.8295   -3.2213   -2.6250 C.ar      1 <0>        -0.0499
     33 C24         4.9597    0.1861    1.8847 C.3       1 <0>        -0.0280
     34 C25         5.5251    2.6417    1.8366 C.3       1 <0>        -0.0280
     35 C26         2.8883   -0.7871   -3.1898 C.3       1 <0>         0.4175
     36 H1         -2.6092    1.4905    0.2224 H         1 <0>         0.0335
     37 H2         -4.0701   -1.1674   -0.1900 H         1 <0>         0.0372
     38 H3         -4.3346    2.5069   -1.1563 H         1 <0>         0.0597
     39 H4         -4.5648    0.5005    2.2857 H         1 <0>         0.0600
     40 H5         -6.3914    1.4841    0.3090 H         1 <0>         0.0315
     41 H6         -5.0499    2.3637    1.0787 H         1 <0>         0.0315
     42 H7         -1.4806   -0.2260   -1.2713 H         1 <0>         0.0311
     43 H8         -2.9123   -0.3337   -2.2323 H         1 <0>         0.0311
     44 H9         -2.1407   -0.2605    2.0508 H         1 <0>         0.0573
     45 H10        -6.0306    1.2503   -1.9875 H         1 <0>         0.2098
     46 H11        -6.6418   -0.2801    1.8358 H         1 <0>         0.2098
     47 H12        -2.5998    1.8046   -3.2622 H         1 <0>         0.0569
     48 H13        -2.7177   -2.9122    0.6333 H         1 <0>         0.0596
     49 H14        -0.7640   -2.0281    2.8891 H         1 <0>         0.0672
     50 H15        -0.6244    3.0928   -2.8898 H         1 <0>         0.0569
     51 H16         1.1014    1.7713   -1.5822 H         1 <0>         0.0307
     52 H17        -0.1209    1.1047   -0.5263 H         1 <0>         0.0307
     53 H18         0.5258   -4.1136    2.0692 H         1 <0>         0.0726
     54 H19        -0.4799   -4.0381    0.6121 H         1 <0>         0.0726
     55 H20        -0.7027    3.4294    0.2565 H         1 <0>         0.0273
     56 H21         0.6369    4.0471   -0.7001 H         1 <0>         0.0273
     57 H22        -2.4662   -3.3588    3.5793 H         1 <0>         0.2104
     58 H23         0.8448    2.0459    1.6016 H         1 <0>         0.0378
     59 H24         1.2431    3.7745    1.6989 H         1 <0>         0.0378
     60 H25         1.6038   -0.6197   -0.8080 H         1 <0>         0.0660
     61 H26         1.5819   -4.8456    0.0676 H         1 <0>         0.0654
     62 H27         4.8028    1.4567    0.1967 H         1 <0>         0.0728
     63 H28         2.7312   -5.2919   -2.0400 H         1 <0>         0.0619
     64 H29         3.3507   -3.4482   -3.5508 H         1 <0>         0.0623
     65 H30         4.3018   -0.5844    1.4681 H         1 <0>         0.0265
     66 H31         5.9983   -0.0992    1.6922 H         1 <0>         0.0265
     67 H32         4.7911    0.1914    2.9671 H         1 <0>         0.0265
     68 H33         5.2928    3.6062    1.3729 H         1 <0>         0.0265
     69 H34         6.5830    2.4217    1.6638 H         1 <0>         0.0265
     70 H35         5.3642    2.7644    2.9134 H         1 <0>         0.0265
@<TRIPOS>BOND
     1    1   35 1
     2    2   35 1
     3    3   35 1
     4    4   12 1
     5    4   45 1
     6    5   13 1
     7    5   46 1
     8    6   19 1
     9    6   57 1
    10    7   22 1
    11    7   25 1
    12    8   26 1
    13    8   29 1
    14    9   26 2
    15   10   11 1
    16   10   12 1
    17   10   15 1
    18   10   36 1
    19   11   13 1
    20   11   16 1
    21   11   37 1
    22   12   14 1
    23   12   38 1
    24   13   14 1
    25   13   39 1
    26   14   40 1
    27   14   41 1
    28   15   17 1
    29   15   42 1
    30   15   43 1
    31   16   18 2
    32   16   44 1
    33   17   20 2
    34   17   47 1
    35   18   19 1
    36   18   48 1
    37   19   22 1
    38   19   49 1
    39   20   21 1
    40   20   50 1
    41   21   23 1
    42   21   51 1
    43   21   52 1
    44   22   53 1
    45   22   54 1
    46   23   24 1
    47   23   55 1
    48   23   56 1
    49   24   26 1
    50   24   58 1
    51   24   59 1
    52   25   27 ar
    53   25   28 ar
    54   27   30 ar
    55   27   60 1
    56   28   31 ar
    57   28   61 1
    58   29   33 1
    59   29   34 1
    60   29   62 1
    61   30   32 ar
    62   30   35 1
    63   31   32 ar
    64   31   63 1
    65   32   64 1
    66   33   65 1
    67   33   66 1
    68   33   67 1
    69   34   68 1
    70   34   69 1
    71   34   70 1
