@<TRIPOS>MOLECULE
DB00354
   64    67     0     0     0
SMALL
USER_CHARGES

@<TRIPOS>ATOM
      1 Cl1        -8.4677   -3.0178   -0.0147 Cl        1 <0>        -0.0835
      2 N1         -2.3429   -0.3124    0.1381 N.3       1 <0>        -0.2891
      3 N2          0.2371   -1.6112    0.2631 N.3       1 <0>        -0.2957
      4 C1         -2.1891   -1.7348   -0.1908 C.3       1 <0>         0.0126
      5 C2         -1.1060    0.4192   -0.1617 C.3       1 <0>         0.0126
      6 C3         -1.0001   -2.3432    0.5609 C.3       1 <0>         0.0121
      7 C4          0.0828   -0.1885    0.5910 C.3       1 <0>         0.0121
      8 C5         -3.4758    0.2670   -0.5806 C.3       1 <0>         0.0610
      9 C6          1.3692   -2.1901    0.9837 C.3       1 <0>         0.0241
     10 C7         -4.7408   -0.5663   -0.4367 C.ar      1 <0>        -0.0258
     11 C8         -3.7127    1.7242   -0.2122 C.ar      1 <0>        -0.0259
     12 C9          2.6637   -1.5022    0.6404 C.ar      1 <0>        -0.0333
     13 C10         6.3335    0.4450   -0.3327 C.3       1 <0>        -0.0127
     14 C11         5.0507   -0.2357    0.0072 C.ar      1 <0>        -0.0420
     15 C12         2.9570   -1.2217   -0.6866 C.ar      1 <0>        -0.0571
     16 C13         3.5453   -1.1594    1.6557 C.ar      1 <0>        -0.0571
     17 C14        -4.9932   -1.5611   -1.3592 C.ar      1 <0>        -0.0554
     18 C15        -5.5986   -0.3019    0.6118 C.ar      1 <0>        -0.0554
     19 C16        -4.2567    2.5712   -1.1564 C.ar      1 <0>        -0.0568
     20 C17        -3.3768    2.1554    1.0551 C.ar      1 <0>        -0.0568
     21 C18         4.1566   -0.5853   -1.0049 C.ar      1 <0>        -0.0578
     22 C19         4.7451   -0.5229    1.3376 C.ar      1 <0>        -0.0578
     23 C20         7.2554    0.7866    0.8847 C.3       1 <0>        -0.0560
     24 C21         7.2069   -0.4343   -1.2805 C.3       1 <0>        -0.0560
     25 C22         6.0786    1.8044   -1.0546 C.3       1 <0>        -0.0560
     26 C23        -6.1535   -2.3244   -1.2279 C.ar      1 <0>        -0.0431
     27 C24        -6.7587   -1.0652    0.7433 C.ar      1 <0>        -0.0431
     28 C25        -4.4739    3.9071   -0.8189 C.ar      1 <0>        -0.0614
     29 C26        -3.5942    3.4913    1.3926 C.ar      1 <0>        -0.0614
     30 C27        -7.0362   -2.0764   -0.1765 C.ar      1 <0>         0.0410
     31 C28        -4.1429    4.3671    0.4556 C.ar      1 <0>        -0.0617
     32 H1         -2.0498   -1.8858   -1.2697 H         1 <0>         0.0439
     33 H2         -3.0495   -2.3250    0.1392 H         1 <0>         0.0439
     34 H3         -0.8955    0.3933   -1.2405 H         1 <0>         0.0439
     35 H4         -1.1421    1.4748    0.1202 H         1 <0>         0.0439
     36 H5         -1.2058   -2.3415    1.6402 H         1 <0>         0.0439
     37 H6         -0.8942   -3.3900    0.2506 H         1 <0>         0.0439
     38 H7          0.9635    0.3974    0.3080 H         1 <0>         0.0439
     39 H8         -0.0613   -0.0507    1.6718 H         1 <0>         0.0439
     40 H9         -3.2215    0.2705   -1.6534 H         1 <0>         0.0562
     41 H10         1.4828   -3.2488    0.7157 H         1 <0>         0.0476
     42 H11         1.1929   -2.1532    2.0673 H         1 <0>         0.0476
     43 H12         2.2813   -1.4981   -1.4913 H         1 <0>         0.0621
     44 H13         3.3187   -1.3790    2.6952 H         1 <0>         0.0621
     45 H14        -4.3233   -1.7564   -2.1910 H         1 <0>         0.0621
     46 H15        -5.4117    0.4562    1.3627 H         1 <0>         0.0621
     47 H16        -4.5192    2.2219   -2.1504 H         1 <0>         0.0621
     48 H17        -2.9754    1.4960    1.8183 H         1 <0>         0.0621
     49 H18         4.3707   -0.3761   -2.0491 H         1 <0>         0.0621
     50 H19         5.4030   -0.2740    2.1629 H         1 <0>         0.0621
     51 H20         8.1762    1.2835    0.5555 H         1 <0>         0.0238
     52 H21         6.7585    1.4663    1.5868 H         1 <0>         0.0238
     53 H22         7.5561   -0.1174    1.4272 H         1 <0>         0.0238
     54 H23         6.7072   -0.6268   -2.2362 H         1 <0>         0.0238
     55 H24         8.1625    0.0524   -1.5079 H         1 <0>         0.0238
     56 H25         7.4249   -1.4051   -0.8199 H         1 <0>         0.0238
     57 H26         7.0199    2.3191   -1.2797 H         1 <0>         0.0238
     58 H27         5.5486    1.6703   -2.0040 H         1 <0>         0.0238
     59 H28         5.4723    2.4697   -0.4286 H         1 <0>         0.0238
     60 H29        -6.3583   -3.1069   -1.9539 H         1 <0>         0.0632
     61 H30        -7.4351   -0.8646    1.5703 H         1 <0>         0.0632
     62 H31        -4.9020    4.5888   -1.5480 H         1 <0>         0.0618
     63 H32        -3.3427    3.8483    2.3870 H         1 <0>         0.0618
     64 H33        -4.3137    5.4068    0.7191 H         1 <0>         0.0618
@<TRIPOS>BOND
     1    1   30 1
     2    2    4 1
     3    2    5 1
     4    2    8 1
     5    3    6 1
     6    3    7 1
     7    3    9 1
     8    4    6 1
     9    4   32 1
    10    4   33 1
    11    5    7 1
    12    5   34 1
    13    5   35 1
    14    6   36 1
    15    6   37 1
    16    7   38 1
    17    7   39 1
    18    8   10 1
    19    8   11 1
    20    8   40 1
    21    9   12 1
    22    9   41 1
    23    9   42 1
    24   10   17 ar
    25   10   18 ar
    26   11   19 ar
    27   11   20 ar
    28   12   15 ar
    29   12   16 ar
    30   13   14 1
    31   13   23 1
    32   13   24 1
    33   13   25 1
    34   14   21 ar
    35   14   22 ar
    36   15   21 ar
    37   15   43 1
    38   16   22 ar
    39   16   44 1
    40   17   26 ar
    41   17   45 1
    42   18   27 ar
    43   18   46 1
    44   19   28 ar
    45   19   47 1
    46   20   29 ar
    47   20   48 1
    48   21   49 1
    49   22   50 1
    50   23   51 1
    51   23   52 1
    52   23   53 1
    53   24   54 1
    54   24   55 1
    55   24   56 1
    56   25   57 1
    57   25   58 1
    58   25   59 1
    59   26   30 ar
    60   26   60 1
    61   27   30 ar
    62   27   61 1
    63   28   31 ar
    64   28   62 1
    65   29   31 ar
    66   29   63 1
    67   31   64 1
