@<TRIPOS>MOLECULE
DB00869
   35    36     0     0     0
SMALL
USER_CHARGES

@<TRIPOS>ATOM
      1 S1          0.0896   -2.4381    0.7348 S.o2      1 <0>         0.0061
      2 S2         -2.6384   -1.3116    0.9946 S.3       1 <0>        -0.0499
      3 S3         -4.7543    0.6755    0.6492 S.o2      1 <0>         0.0623
      4 O1         -0.2962   -3.4522   -0.2232 O.2       1 <0>        -0.1686
      5 O2          0.1017   -2.6642    2.1644 O.2       1 <0>        -0.1686
      6 O3         -5.1958   -0.0817    1.8149 O.2       1 <0>        -0.1527
      7 O4         -4.7641    2.1330    0.6649 O.2       1 <0>        -0.1527
      8 N1          1.1493    1.4343    0.2112 N.3       1 <0>        -0.3094
      9 N2         -5.6741    0.1426   -0.7000 N.pl3     1 <0>        -0.2030
     10 C1          1.6473   -1.6730    0.2364 C.3       1 <0>         0.0815
     11 C2          0.5321    0.4814   -0.7131 C.3       1 <0>         0.0370
     12 C3          1.4463   -0.7403   -0.9766 C.3       1 <0>        -0.0109
     13 C4         -0.8093    0.0926   -0.1592 C.2       1 <0>         0.0035
     14 C5         -1.0387   -1.1128    0.4679 C.2       1 <0>         0.1321
     15 C6          2.6820   -2.7529   -0.0635 C.3       1 <0>        -0.0424
     16 C7         -2.0071    0.8742   -0.2006 C.2       1 <0>        -0.0215
     17 C8         -3.0730    0.2326    0.3945 C.2       1 <0>         0.1442
     18 C9          2.4599    1.8400   -0.2698 C.3       1 <0>        -0.0064
     19 C10         3.0789    2.8431    0.6844 C.3       1 <0>        -0.0526
     20 H1          1.9902   -1.0899    1.0991 H         1 <0>         0.0538
     21 H2          0.3613    0.9816   -1.6768 H         1 <0>         0.0511
     22 H3          0.9687   -1.3320   -1.7729 H         1 <0>         0.0302
     23 H4          2.4088   -0.4539   -1.4112 H         1 <0>         0.0302
     24 H5          2.8080   -3.4207    0.7953 H         1 <0>         0.0248
     25 H6          2.3848   -3.3663   -0.9207 H         1 <0>         0.0248
     26 H7          3.6555   -2.3050   -0.2886 H         1 <0>         0.0248
     27 H8          0.5540    2.2574    0.3060 H         1 <0>         0.1225
     28 H9         -2.0797    1.8589   -0.6450 H         1 <0>         0.0646
     29 H10         3.1668    1.0073   -0.3028 H         1 <0>         0.0421
     30 H11         2.3942    2.2851   -1.2693 H         1 <0>         0.0421
     31 H12         2.4658    3.7473    0.7632 H         1 <0>         0.0242
     32 H13         3.1937    2.4192    1.6881 H         1 <0>         0.0242
     33 H14         4.0710    3.1415    0.3302 H         1 <0>         0.0242
     34 H15        -5.5000    0.6210   -1.5933 H         1 <0>         0.1443
     35 H16        -5.7789   -0.8739   -0.8126 H         1 <0>         0.1443
@<TRIPOS>BOND
     1    1    4 2
     2    1    5 2
     3    1   10 1
     4    1   14 1
     5    2   14 1
     6    2   17 1
     7    3    6 2
     8    3    7 2
     9    3    9 1
    10    3   17 1
    11    8   11 1
    12    8   18 1
    13    8   27 1
    14    9   34 1
    15    9   35 1
    16   10   12 1
    17   10   15 1
    18   10   20 1
    19   11   12 1
    20   11   13 1
    21   11   21 1
    22   12   22 1
    23   12   23 1
    24   13   14 2
    25   13   16 1
    26   15   24 1
    27   15   25 1
    28   15   26 1
    29   16   17 2
    30   16   28 1
    31   18   19 1
    32   18   29 1
    33   18   30 1
    34   19   31 1
    35   19   32 1
    36   19   33 1
