@<TRIPOS>MOLECULE
DB00497
   44    48     0     0     0
SMALL
USER_CHARGES

@<TRIPOS>ATOM
      1 O1          1.7114   -1.4209   -1.4343 O.3       1 <0>        -0.4764
      2 O2         -2.7145   -1.6192   -0.3180 O.3       1 <0>        -0.3860
      3 O3          1.5573   -3.6641    0.0717 O.2       1 <0>        -0.2934
      4 O4          4.1821   -0.0193   -0.7514 O.3       1 <0>        -0.4914
      5 N1         -2.6962    1.1407   -0.4185 N.3       1 <0>        -0.2993
      6 C1         -0.4976   -0.7302   -0.7339 C.3       1 <0>         0.0746
      7 C2         -1.6073   -0.9473    0.3054 C.3       1 <0>         0.0957
      8 C3         -2.0729    0.4787    0.7572 C.3       1 <0>         0.0438
      9 C4          0.3747   -1.9326   -1.1291 C.3       1 <0>         0.1701
     10 C5         -1.0744    0.0141   -1.9615 C.3       1 <0>        -0.0238
     11 C6          0.5925    0.0930   -0.1393 C.ar      1 <0>         0.0141
     12 C7         -1.1473   -1.8589    1.4569 C.3       1 <0>        -0.0147
     13 C8         -0.9146    1.3004    1.4265 C.3       1 <0>        -0.0089
     14 C9         -1.7998    1.3139   -1.5661 C.3       1 <0>         0.0000
     15 C10         0.4434    1.0851    0.8108 C.ar      1 <0>        -0.0382
     16 C11        -0.6249   -3.1907    0.9203 C.3       1 <0>         0.0123
     17 C12         0.5408   -2.9736   -0.0179 C.2       1 <0>         0.1745
     18 C13         1.8177   -0.3088   -0.6317 C.ar      1 <0>         0.1671
     19 C14        -3.3925    2.3801   -0.0913 C.3       1 <0>        -0.0124
     20 C15         1.6017    1.7554    1.2042 C.ar      1 <0>        -0.0546
     21 C16         2.9705    0.3484   -0.2685 C.ar      1 <0>         0.1618
     22 C17         2.8520    1.3995    0.6527 C.ar      1 <0>        -0.0160
     23 C18         5.3177    0.7291   -0.3112 C.3       1 <0>         0.0790
     24 H1         -2.8718    0.3489    1.4997 H         1 <0>         0.0494
     25 H2         -0.0161   -2.4510   -2.0121 H         1 <0>         0.0824
     26 H3         -1.7782   -0.6414   -2.4905 H         1 <0>         0.0288
     27 H4         -0.2876    0.2605   -2.6866 H         1 <0>         0.0288
     28 H5         -1.9938   -2.0654    2.1233 H         1 <0>         0.0298
     29 H6         -0.3687   -1.3855    2.0645 H         1 <0>         0.0298
     30 H7         -0.8484    0.9821    2.4754 H         1 <0>         0.0329
     31 H8         -1.1433    2.3705    1.4460 H         1 <0>         0.0329
     32 H9         -1.0628    2.1023   -1.3685 H         1 <0>         0.0427
     33 H10        -2.3789    1.6492   -2.4357 H         1 <0>         0.0427
     34 H11        -1.3967   -3.7617    0.3957 H         1 <0>         0.0344
     35 H12        -0.2811   -3.8031    1.7617 H         1 <0>         0.0344
     36 H13        -2.3703   -2.3358   -0.8765 H         1 <0>         0.2103
     37 H14        -4.0047    2.7044   -0.9404 H         1 <0>         0.0391
     38 H15        -2.7102    3.1987    0.1588 H         1 <0>         0.0391
     39 H16        -4.0808    2.2325    0.7480 H         1 <0>         0.0391
     40 H17         1.5526    2.5442    1.9503 H         1 <0>         0.0622
     41 H18         3.7035    1.9709    1.0101 H         1 <0>         0.0655
     42 H19         5.2468    1.7793   -0.6140 H         1 <0>         0.0660
     43 H20         6.1966    0.3076   -0.8096 H         1 <0>         0.0660
     44 H21         5.4740    0.6199    0.7671 H         1 <0>         0.0660
@<TRIPOS>BOND
     1    1    9 1
     2    1   18 1
     3    2    7 1
     4    2   36 1
     5    3   17 2
     6    4   21 1
     7    4   23 1
     8    5    8 1
     9    5   14 1
    10    5   19 1
    11    6    7 1
    12    6    9 1
    13    6   10 1
    14    6   11 1
    15    7    8 1
    16    7   12 1
    17    8   13 1
    18    8   24 1
    19    9   17 1
    20    9   25 1
    21   10   14 1
    22   10   26 1
    23   10   27 1
    24   11   15 ar
    25   11   18 ar
    26   12   16 1
    27   12   28 1
    28   12   29 1
    29   13   15 1
    30   13   30 1
    31   13   31 1
    32   14   32 1
    33   14   33 1
    34   15   20 ar
    35   16   17 1
    36   16   34 1
    37   16   35 1
    38   18   21 ar
    39   19   37 1
    40   19   38 1
    41   19   39 1
    42   20   22 ar
    43   20   40 1
    44   21   22 ar
    45   22   41 1
    46   23   42 1
    47   23   43 1
    48   23   44 1
