@<TRIPOS>MOLECULE
DB00916
   21    21     0     0     0
SMALL
USER_CHARGES

@<TRIPOS>ATOM
      1 O1         -3.2373    0.0323    0.2968 O.3       1 <0>        -0.3932
      2 O2          1.5710    3.4212   -0.0036 O.3       1 <0>        -0.5747
      3 O3         -0.4439    2.6805   -0.4624 O.2       1 <0>         0.0431
      4 N1          0.4263    0.0444   -0.2125 N.pl3     1 <0>        -0.2684
      5 N2          2.4466   -0.7387    0.2739 N.2       1 <0>        -0.2338
      6 N3          0.7679    2.4590   -0.1745 N.pl3     1 <0>         0.1004
      7 C1         -0.9811    0.0458   -0.5446 C.3       1 <0>         0.0535
      8 C2          1.2047   -1.0613   -0.0114 C.cat     1 <0>         0.1116
      9 C3          1.2226    1.1420   -0.0449 C.2       1 <0>         0.3680
     10 C4         -1.8717    0.0714    0.6902 C.3       1 <0>         0.0623
     11 C5          2.4645    0.6335    0.2547 C.2       1 <0>         0.1255
     12 C6          0.6657   -2.4332   -0.1087 C.3       1 <0>        -0.0061
     13 H1         -1.2239    0.8106   -1.2846 H         1 <0>         0.0517
     14 H2         -1.1906   -0.8797   -1.0967 H         1 <0>         0.0517
     15 H3         -1.6828   -0.7920    1.3358 H         1 <0>         0.0575
     16 H4         -1.7108    0.9727    1.2902 H         1 <0>         0.0575
     17 H5          3.3746    1.1800    0.4583 H         1 <0>         0.0917
     18 H6          1.4326   -3.1624    0.1732 H         1 <0>         0.0307
     19 H7         -0.1864   -2.5785    0.5615 H         1 <0>         0.0307
     20 H8          0.3561   -2.6613   -1.1332 H         1 <0>         0.0307
     21 H9         -3.4041    0.8135   -0.2576 H         1 <0>         0.2095
@<TRIPOS>BOND
     1    1   10 1
     2    1   21 1
     3    2    6 1
     4    3    6 2
     5    4    7 1
     6    4    8 1
     7    4    9 2
     8    5    8 1
     9    5   11 2
    10    6    9 1
    11    7   10 1
    12    7   13 1
    13    7   14 1
    14    8   12 1
    15    9   11 1
    16   10   15 1
    17   10   16 1
    18   11   17 1
    19   12   18 1
    20   12   19 1
    21   12   20 1
