@<TRIPOS>MOLECULE
DB00967
   41    44     0     0     0
SMALL
USER_CHARGES

@<TRIPOS>ATOM
      1 Cl1        -5.9506    0.9701   -0.4666 Cl        1 <0>        -0.0835
      2 N1          2.5379    3.0574    0.7039 N.3       1 <0>        -0.3154
      3 N2          1.4533   -1.5505   -1.6950 N.ar      1 <0>        -0.2547
      4 C1          0.8265    1.0539   -0.4862 C.2       1 <0>        -0.0574
      5 C2          0.0019   -0.0007   -0.5496 C.2       1 <0>         0.0073
      6 C3          2.3249    0.9258   -0.5630 C.3       1 <0>        -0.0182
      7 C4          0.3362    2.4642   -0.2936 C.3       1 <0>        -0.0182
      8 C5          2.9814    1.6612    0.6084 C.3       1 <0>        -0.0004
      9 C6          1.0808    3.1321    0.8659 C.3       1 <0>        -0.0004
     10 C7         -1.4702    0.2042   -0.4667 C.ar      1 <0>        -0.0126
     11 C8          0.6550   -1.3229   -0.6209 C.ar      1 <0>         0.0747
     12 C9         -1.9106   -1.8131    1.1377 C.3       1 <0>        -0.0230
     13 C10        -2.3273   -0.6177    0.2993 C.ar      1 <0>        -0.0379
     14 C11        -0.4479   -1.9477    1.5584 C.3       1 <0>        -0.0216
     15 C12         0.4424   -2.2595    0.3897 C.ar      1 <0>        -0.0211
     16 C13        -2.0434    1.2394   -1.2398 C.ar      1 <0>        -0.0523
     17 C14        -3.7171   -0.3607    0.2701 C.ar      1 <0>        -0.0396
     18 C15         1.0892   -3.4926    0.2752 C.ar      1 <0>        -0.0551
     19 C16        -3.4174    1.4791   -1.2427 C.ar      1 <0>        -0.0428
     20 C17        -4.2563    0.6787   -0.4842 C.ar      1 <0>         0.0413
     21 C18         1.9095   -3.7519   -0.8167 C.ar      1 <0>        -0.0433
     22 C19         2.0575   -2.7567   -1.7656 C.ar      1 <0>         0.0283
     23 H1          2.7405   -0.0800   -0.5239 H         1 <0>         0.0323
     24 H2          2.6631    1.3684   -1.5091 H         1 <0>         0.0323
     25 H3          0.5016    3.0354   -1.2158 H         1 <0>         0.0323
     26 H4         -0.7040    2.5867    0.0008 H         1 <0>         0.0323
     27 H5          2.7745    1.1387    1.5513 H         1 <0>         0.0427
     28 H6          4.0688    1.6520    0.4715 H         1 <0>         0.0427
     29 H7          0.7911    4.1879    0.9169 H         1 <0>         0.0427
     30 H8          0.7899    2.6756    1.8211 H         1 <0>         0.0427
     31 H9         -2.4968   -1.7837    2.0666 H         1 <0>         0.0317
     32 H10        -2.2179   -2.7191    0.5972 H         1 <0>         0.0317
     33 H11        -0.3718   -2.7549    2.2981 H         1 <0>         0.0317
     34 H12        -0.0955   -1.0413    2.0667 H         1 <0>         0.0317
     35 H13         2.9876    3.4980    1.5059 H         1 <0>         0.1220
     36 H14        -1.4490    1.8291   -1.9358 H         1 <0>         0.0624
     37 H15        -4.3849   -0.9947    0.8527 H         1 <0>         0.0635
     38 H16         0.9573   -4.2588    1.0344 H         1 <0>         0.0621
     39 H17        -3.8156    2.2795   -1.8607 H         1 <0>         0.0632
     40 H18         2.4176   -4.7039   -0.9197 H         1 <0>         0.0633
     41 H19         2.6875   -2.9071   -2.6360 H         1 <0>         0.0830
@<TRIPOS>BOND
     1    1   20 1
     2    2    8 1
     3    2    9 1
     4    2   35 1
     5    3   11 ar
     6    3   22 ar
     7    4    5 2
     8    4    6 1
     9    4    7 1
    10    5   10 1
    11    5   11 1
    12    6    8 1
    13    6   23 1
    14    6   24 1
    15    7    9 1
    16    7   25 1
    17    7   26 1
    18    8   27 1
    19    8   28 1
    20    9   29 1
    21    9   30 1
    22   10   13 ar
    23   10   16 ar
    24   11   15 ar
    25   12   13 1
    26   12   14 1
    27   12   31 1
    28   12   32 1
    29   13   17 ar
    30   14   15 1
    31   14   33 1
    32   14   34 1
    33   15   18 ar
    34   16   19 ar
    35   16   36 1
    36   17   20 ar
    37   17   37 1
    38   18   21 ar
    39   18   38 1
    40   19   20 ar
    41   19   39 1
    42   21   22 ar
    43   21   40 1
    44   22   41 1
