@<TRIPOS>MOLECULE
DB00694
   67    71     0     0     0
SMALL
USER_CHARGES

@<TRIPOS>ATOM
      1 O1         -1.5872    0.6351    0.3399 O.3       1 <0>        -0.3432
      2 O2         -3.7705    1.2192    1.0604 O.3       1 <0>        -0.3457
      3 O3         -2.4967   -1.7383   -0.9251 O.3       1 <0>        -0.3806
      4 O4         -5.1658    3.3699   -0.2626 O.3       1 <0>        -0.3877
      5 O5          1.1392    1.3099    1.5202 O.3       1 <0>        -0.5057
      6 O6          1.8817   -3.6599   -0.7626 O.3       1 <0>        -0.5057
      7 O7         -3.7657   -3.5916    1.4754 O.2       1 <0>        -0.2946
      8 O8          3.6028    1.7341    1.1809 O.2       1 <0>        -0.2864
      9 O9          4.3158   -3.0733   -1.0391 O.2       1 <0>        -0.2865
     10 O10         6.0869    2.3139    0.9314 O.3       1 <0>        -0.4944
     11 N1         -2.8930    4.1985   -1.7841 N.3       1 <0>        -0.3249
     12 C1         -1.0996   -0.3173    1.2827 C.3       1 <0>         0.0934
     13 C2         -2.0813   -2.4191    0.2523 C.3       1 <0>         0.1300
     14 C3         -2.1063   -1.4615    1.4457 C.3       1 <0>         0.0140
     15 C4         -0.6889   -3.0305    0.0647 C.3       1 <0>         0.0122
     16 C5          0.2574   -0.7812    0.8147 C.ar      1 <0>         0.0302
     17 C6          0.4425   -2.0390    0.2158 C.ar      1 <0>         0.0070
     18 C7         -2.4011    1.6185    0.9724 C.3       1 <0>         0.1618
     19 C8         -2.2619    2.9525    0.2367 C.3       1 <0>         0.0161
     20 C9         -2.9463    2.8906   -1.1337 C.3       1 <0>         0.0382
     21 C10        -4.3951    2.4060   -0.9822 C.3       1 <0>         0.0963
     22 C11        -4.4195    1.0784   -0.2103 C.3       1 <0>         0.0861
     23 C12         1.3561    0.0847    0.9521 C.ar      1 <0>         0.1345
     24 C13        -3.0883   -3.5159    0.4516 C.2       1 <0>         0.1620
     25 C14         1.7264   -2.4179   -0.2114 C.ar      1 <0>         0.1322
     26 C15         2.6294   -0.2983    0.5157 C.ar      1 <0>         0.0784
     27 C16         2.8148   -1.5506   -0.0646 C.ar      1 <0>         0.0782
     28 C17        -5.8390    0.5900    0.0589 C.3       1 <0>        -0.0361
     29 C18        -3.2294   -4.5159   -0.6640 C.3       1 <0>        -0.0032
     30 C19         3.7673    0.6302    0.6765 C.2       1 <0>         0.2016
     31 C20         4.1534   -1.9732   -0.5257 C.2       1 <0>         0.1982
     32 C21         5.1075    0.2072    0.2216 C.ar      1 <0>         0.0748
     33 C22         5.2940   -1.0494   -0.3582 C.ar      1 <0>         0.0367
     34 C23         6.1960    1.0742    0.3742 C.ar      1 <0>         0.1316
     35 C24         6.5690   -1.4393   -0.7851 C.ar      1 <0>        -0.0500
     36 C25         7.4650    0.6817   -0.0523 C.ar      1 <0>        -0.0192
     37 C26         7.6513   -0.5723   -0.6308 C.ar      1 <0>        -0.0576
     38 C27         5.8018    3.3969    0.0490 C.3       1 <0>         0.0788
     39 H1         -0.9724    0.1242    2.2810 H         1 <0>         0.0649
     40 H2         -1.8543   -2.0205    2.3582 H         1 <0>         0.0326
     41 H3         -3.1160   -1.0651    1.5888 H         1 <0>         0.0326
     42 H4         -0.6314   -3.4708   -0.9388 H         1 <0>         0.0347
     43 H5         -0.5345   -3.8274    0.8045 H         1 <0>         0.0347
     44 H6         -2.0609    1.8018    1.9986 H         1 <0>         0.0910
     45 H7         -1.2016    3.2044    0.1130 H         1 <0>         0.0330
     46 H8         -2.7256    3.7415    0.8430 H         1 <0>         0.0330
     47 H9         -2.4047    2.1793   -1.7695 H         1 <0>         0.0486
     48 H10        -4.8531    2.2826   -1.9713 H         1 <0>         0.0635
     49 H11        -3.9007    0.3131   -0.7944 H         1 <0>         0.0620
     50 H12        -2.2341   -2.2562   -1.7041 H         1 <0>         0.2108
     51 H13        -5.8092   -0.4003    0.5272 H         1 <0>         0.0255
     52 H14        -6.3667    1.2429    0.7621 H         1 <0>         0.0255
     53 H15        -6.4180    0.5161   -0.8663 H         1 <0>         0.0255
     54 H16        -1.9279    4.5241   -1.8222 H         1 <0>         0.1186
     55 H17        -3.4000    4.8825   -1.2236 H         1 <0>         0.1186
     56 H18        -3.5270   -4.0243   -1.5924 H         1 <0>         0.0307
     57 H19        -2.3016   -5.0739   -0.8042 H         1 <0>         0.0307
     58 H20        -4.0140   -5.2323   -0.4002 H         1 <0>         0.0307
     59 H21        -6.1049    3.1593   -0.3986 H         1 <0>         0.2100
     60 H22         0.2259    1.5975    1.3691 H         1 <0>         0.2922
     61 H23         1.2207   -4.2783   -0.4139 H         1 <0>         0.2922
     62 H24         6.7400   -2.4117   -1.2391 H         1 <0>         0.0625
     63 H25         8.3161    1.3478    0.0636 H         1 <0>         0.0654
     64 H26         8.6402   -0.8756   -0.9619 H         1 <0>         0.0619
     65 H27         6.7010    3.6608   -0.5164 H         1 <0>         0.0660
     66 H28         5.5019    4.2596    0.6501 H         1 <0>         0.0660
     67 H29         4.9898    3.1519   -0.6433 H         1 <0>         0.0660
@<TRIPOS>BOND
     1    1   12 1
     2    1   18 1
     3    2   18 1
     4    2   22 1
     5    3   13 1
     6    3   50 1
     7    4   21 1
     8    4   59 1
     9    5   23 1
    10    5   60 1
    11    6   25 1
    12    6   61 1
    13    7   24 2
    14    8   30 2
    15    9   31 2
    16   10   34 1
    17   10   38 1
    18   11   20 1
    19   11   54 1
    20   11   55 1
    21   12   14 1
    22   12   16 1
    23   12   39 1
    24   13   14 1
    25   13   15 1
    26   13   24 1
    27   14   40 1
    28   14   41 1
    29   15   17 1
    30   15   42 1
    31   15   43 1
    32   16   17 ar
    33   16   23 ar
    34   17   25 ar
    35   18   19 1
    36   18   44 1
    37   19   20 1
    38   19   45 1
    39   19   46 1
    40   20   21 1
    41   20   47 1
    42   21   22 1
    43   21   48 1
    44   22   28 1
    45   22   49 1
    46   23   26 ar
    47   24   29 1
    48   25   27 ar
    49   26   27 ar
    50   26   30 1
    51   27   31 1
    52   28   51 1
    53   28   52 1
    54   28   53 1
    55   29   56 1
    56   29   57 1
    57   29   58 1
    58   30   32 1
    59   31   33 1
    60   32   33 ar
    61   32   34 ar
    62   33   35 ar
    63   34   36 ar
    64   35   37 ar
    65   35   62 1
    66   36   37 ar
    67   36   63 1
    68   37   64 1
    69   38   65 1
    70   38   66 1
    71   38   67 1
