@<TRIPOS>MOLECULE
DB00749
   42    44     0     0     0
SMALL
USER_CHARGES

@<TRIPOS>ATOM
      1 O1         -2.7363   -1.0032    0.4864 O.3       1 <0>        -0.3664
      2 O2         -4.0707    2.2784   -1.6645 O.3       1 <0>        -0.4805
      3 O3         -4.8809    0.2841   -0.9248 O.2       1 <0>        -0.2509
      4 N1          0.5397    0.5344   -0.3133 N.pl3     1 <0>        -0.3552
      5 C1         -1.9632    0.1280    0.0028 C.3       1 <0>         0.1190
      6 C2         -0.5261   -0.2887   -0.0775 C.cat     1 <0>         0.0531
      7 C3         -0.0537   -1.5779    0.0415 C.2       1 <0>        -0.0141
      8 C4         -0.9853   -2.7039    0.3002 C.3       1 <0>        -0.0018
      9 C5         -2.1640    1.2420    1.0339 C.3       1 <0>        -0.0205
     10 C6         -2.5000    0.5721   -1.3609 C.3       1 <0>         0.0793
     11 C7          1.3575   -1.5413   -0.1120 C.ar      1 <0>         0.0035
     12 C8         -2.4076   -2.2782   -0.0916 C.3       1 <0>         0.0529
     13 C9          1.7043   -0.2040   -0.3340 C.ar      1 <0>         0.0502
     14 C10         3.0270    0.2083   -0.5314 C.ar      1 <0>        -0.0237
     15 C11        -1.7093    0.8040    2.4109 C.3       1 <0>        -0.0623
     16 C12         2.3800   -2.5106   -0.0852 C.ar      1 <0>        -0.0523
     17 C13        -3.9432    0.9826   -1.2792 C.2       1 <0>         0.3079
     18 C14         3.4023    1.6329   -0.7702 C.3       1 <0>        -0.0286
     19 C15         4.0230   -0.7716   -0.5004 C.ar      1 <0>        -0.0566
     20 C16         3.7068   -2.1106   -0.2808 C.ar      1 <0>        -0.0608
     21 C17         3.6956    2.3804    0.5275 C.3       1 <0>        -0.0612
     22 H1         -0.6938   -3.6022   -0.2529 H         1 <0>         0.0336
     23 H2         -0.9562   -2.9361    1.3715 H         1 <0>         0.0336
     24 H3         -3.2242    1.5067    1.1247 H         1 <0>         0.0294
     25 H4         -1.6263    2.1533    0.7448 H         1 <0>         0.0294
     26 H5         -1.9029    1.4065   -1.7521 H         1 <0>         0.0410
     27 H6         -2.4378   -0.2217   -2.1141 H         1 <0>         0.0410
     28 H7         -2.5299   -2.2377   -1.1794 H         1 <0>         0.0563
     29 H8         -3.1274   -3.0100    0.2892 H         1 <0>         0.0563
     30 H9          0.4843    1.5346   -0.4480 H         1 <0>         0.1657
     31 H10        -2.2403   -0.0871    2.7603 H         1 <0>         0.0231
     32 H11        -0.6342    0.6061    2.4545 H         1 <0>         0.0231
     33 H12        -1.9130    1.6022    3.1335 H         1 <0>         0.0231
     34 H13         2.1490   -3.5584    0.0849 H         1 <0>         0.0624
     35 H14         4.2809    1.6839   -1.4255 H         1 <0>         0.0311
     36 H15         2.6005    2.1492   -1.3115 H         1 <0>         0.0311
     37 H16         5.0653   -0.4970   -0.6467 H         1 <0>         0.0621
     38 H17         4.4987   -2.8547   -0.2605 H         1 <0>         0.0618
     39 H18         2.8216    2.3862    1.1876 H         1 <0>         0.0233
     40 H19         3.9663    3.4188    0.3124 H         1 <0>         0.0233
     41 H20         4.5257    1.9179    1.0722 H         1 <0>         0.0233
     42 H21        -5.0024    2.5824   -1.6223 H         1 <0>         0.2951
@<TRIPOS>BOND
     1    1    5 1
     2    1   12 1
     3    2   17 1
     4    2   42 1
     5    3   17 2
     6    4    6 1
     7    4   13 2
     8    4   30 1
     9    5    6 1
    10    5    9 1
    11    5   10 1
    12    6    7 1
    13    7    8 1
    14    7   11 2
    15    8   12 1
    16    8   22 1
    17    8   23 1
    18    9   15 1
    19    9   24 1
    20    9   25 1
    21   10   17 1
    22   10   26 1
    23   10   27 1
    24   11   13 ar
    25   11   16 ar
    26   12   28 1
    27   12   29 1
    28   13   14 ar
    29   14   18 1
    30   14   19 ar
    31   15   31 1
    32   15   32 1
    33   15   33 1
    34   16   20 ar
    35   16   34 1
    36   18   21 1
    37   18   35 1
    38   18   36 1
    39   19   20 ar
    40   19   37 1
    41   20   38 1
    42   21   39 1
    43   21   40 1
    44   21   41 1
