@<TRIPOS>MOLECULE
DB00791
   26    26     0     0     0
SMALL
USER_CHARGES

@<TRIPOS>ATOM
      1 Cl1        -3.1510   -3.2060    0.0731 Cl        1 <0>        -0.1238
      2 Cl2        -1.1738    2.4918   -2.0435 Cl        1 <0>        -0.1238
      3 O1          0.7666   -0.6229   -2.3175 O.2       1 <0>        -0.2657
      4 O2          4.6197   -0.5250    0.2153 O.2       1 <0>        -0.2467
      5 N1         -0.7901    0.0735   -0.1498 N.pl3     1 <0>        -0.3224
      6 N2          2.6983   -0.5772   -1.0609 N.am      1 <0>        -0.2736
      7 N3          2.6030   -0.0405    1.2101 N.am      1 <0>        -0.3125
      8 C1         -1.6288   -1.0358   -0.5888 C.3       1 <0>         0.0258
      9 C2         -1.4932    1.2428    0.3654 C.3       1 <0>         0.0258
     10 C3          0.5583   -0.0647   -0.0124 C.2       1 <0>         0.1113
     11 C4         -2.1165   -1.8536    0.5968 C.3       1 <0>         0.0383
     12 C5         -0.9702    2.5195   -0.2741 C.3       1 <0>         0.0383
     13 C6          1.3270   -0.4447   -1.2384 C.2       1 <0>         0.2751
     14 C7          1.2467    0.1106    1.1231 C.2       1 <0>         0.0327
     15 C8          3.3987   -0.3904    0.1318 C.2       1 <0>         0.3268
     16 H1         -2.4831   -0.6509   -1.1606 H         1 <0>         0.0475
     17 H2         -1.0929   -1.7015   -1.2744 H         1 <0>         0.0475
     18 H3         -2.5719    1.1680    0.1758 H         1 <0>         0.0475
     19 H4         -1.3834    1.3010    1.4550 H         1 <0>         0.0475
     20 H5         -1.2770   -2.2797    1.1550 H         1 <0>         0.0445
     21 H6         -2.7040   -1.2419    1.2885 H         1 <0>         0.0445
     22 H7         -1.5241    3.3840    0.1043 H         1 <0>         0.0445
     23 H8          0.0910    2.6854   -0.0664 H         1 <0>         0.0445
     24 H9          0.7658    0.3811    2.0562 H         1 <0>         0.0829
     25 H10         3.2450   -0.8348   -1.8779 H         1 <0>         0.1735
     26 H11         3.0398    0.1121    2.1144 H         1 <0>         0.1699
@<TRIPOS>BOND
     1    1   11 1
     2    2   12 1
     3    3   13 2
     4    4   15 2
     5    5    8 1
     6    5    9 1
     7    5   10 1
     8    6   13 am
     9    6   15 am
    10    6   25 1
    11    7   14 1
    12    7   15 am
    13    7   26 1
    14    8   11 1
    15    8   16 1
    16    8   17 1
    17    9   12 1
    18    9   18 1
    19    9   19 1
    20   10   13 1
    21   10   14 2
    22   11   20 1
    23   11   21 1
    24   12   22 1
    25   12   23 1
    26   14   24 1
