@<TRIPOS>MOLECULE
DB00227
   65    67     0     0     0
SMALL
USER_CHARGES

@<TRIPOS>ATOM
      1 O1         -1.9638   -0.6138   -0.1624 O.3       1 <0>        -0.4605
      2 O2          3.7807    0.4672   -1.1901 O.3       1 <0>        -0.4612
      3 O3          5.2105   -2.5392   -0.5067 O.3       1 <0>        -0.3911
      4 O4         -2.6875   -2.0698   -1.7990 O.2       1 <0>        -0.2505
      5 O5          5.1821    0.7302   -2.9309 O.2       1 <0>        -0.2507
      6 C1         -1.2909    1.7112   -0.4754 C.3       1 <0>         0.0243
      7 C2         -0.0392    1.4759    0.4215 C.3       1 <0>        -0.0247
      8 C3         -1.8251    0.4179   -1.1340 C.3       1 <0>         0.1106
      9 C4          0.4685    2.8101    1.0423 C.3       1 <0>        -0.0219
     10 C5          1.0831    0.7276   -0.3064 C.3       1 <0>        -0.0457
     11 C6         -2.3819    2.4431    0.3007 C.2       1 <0>        -0.0444
     12 C7         -3.1604    0.6658   -1.8415 C.3       1 <0>        -0.0090
     13 C8         -4.2441    1.2459   -0.9162 C.3       1 <0>        -0.0218
     14 C9         -3.6919    2.2205    0.0902 C.2       1 <0>        -0.0775
     15 C10         2.2376    0.4201    0.6378 C.3       1 <0>        -0.0153
     16 C11        -0.6719    3.6035    1.6259 C.2       1 <0>        -0.0806
     17 C12        -1.9552    3.4140    1.2925 C.2       1 <0>        -0.0621
     18 C13         1.2548    3.7029    0.0770 C.3       1 <0>        -0.0587
     19 C14         3.3422   -0.3453   -0.0795 C.3       1 <0>         0.1054
     20 C15        -5.0390    0.1509   -0.1998 C.3       1 <0>        -0.0588
     21 C16         4.4803   -0.6875    0.8708 C.3       1 <0>         0.0109
     22 C17         5.6200   -1.3096    0.0857 C.3       1 <0>         0.0686
     23 C18        -2.4080   -1.8198   -0.6336 C.2       1 <0>         0.3102
     24 C19         6.0785   -0.3642   -1.0074 C.3       1 <0>         0.0710
     25 C20        -2.5346   -2.8072    0.5141 C.3       1 <0>         0.0534
     26 C21         4.9721    0.2834   -1.8047 C.2       1 <0>         0.3098
     27 C22        -1.2348   -3.5980    0.7205 C.3       1 <0>        -0.0432
     28 C23        -3.7022   -3.7438    0.2158 C.3       1 <0>        -0.0523
     29 C24        -0.0463   -2.6978    1.0330 C.3       1 <0>        -0.0645
     30 H1         -0.9976    2.3827   -1.2960 H         1 <0>         0.0388
     31 H2         -0.3588    0.8400    1.2623 H         1 <0>         0.0313
     32 H3         -1.1006    0.0846   -1.8880 H         1 <0>         0.0740
     33 H4          1.1232    2.5681    1.8891 H         1 <0>         0.0343
     34 H5          0.7140   -0.2178   -0.7104 H         1 <0>         0.0269
     35 H6          1.4190    1.3066   -1.1739 H         1 <0>         0.0269
     36 H7         -2.9647    1.4189   -2.6201 H         1 <0>         0.0307
     37 H8         -3.5680   -0.1811   -2.3948 H         1 <0>         0.0307
     38 H9         -4.9525    1.7920   -1.5535 H         1 <0>         0.0342
     39 H10        -4.4323    2.7697    0.6695 H         1 <0>         0.0578
     40 H11         2.6724    1.3448    1.0293 H         1 <0>         0.0301
     41 H12         1.8769   -0.1627    1.4936 H         1 <0>         0.0301
     42 H13        -0.4284    4.3630    2.3645 H         1 <0>         0.0575
     43 H14        -2.7160    4.0154    1.7829 H         1 <0>         0.0617
     44 H15         1.5268    4.6499    0.5586 H         1 <0>         0.0235
     45 H16         0.6726    3.9474   -0.8177 H         1 <0>         0.0235
     46 H17         2.1905    3.2377   -0.2454 H         1 <0>         0.0235
     47 H18         2.9185   -1.2638   -0.5046 H         1 <0>         0.0734
     48 H19        -5.3850   -0.6123   -0.9046 H         1 <0>         0.0235
     49 H20        -4.4582   -0.3391    0.5869 H         1 <0>         0.0235
     50 H21        -5.9272    0.5784    0.2803 H         1 <0>         0.0235
     51 H22         4.1206   -1.3801    1.6404 H         1 <0>         0.0326
     52 H23         4.8443    0.2177    1.3722 H         1 <0>         0.0326
     53 H24         6.4605   -1.5357    0.7510 H         1 <0>         0.0600
     54 H25         6.6618    0.4526   -0.5664 H         1 <0>         0.0403
     55 H26         6.7170   -0.9067   -1.7146 H         1 <0>         0.0403
     56 H27        -2.7821   -2.2482    1.4256 H         1 <0>         0.0410
     57 H28        -1.3715   -4.3020    1.5502 H         1 <0>         0.0270
     58 H29        -1.0023   -4.1928   -0.1714 H         1 <0>         0.0270
     59 H30         4.9124   -3.1242    0.2104 H         1 <0>         0.2098
     60 H31        -4.6238   -3.1784    0.0392 H         1 <0>         0.0238
     61 H32        -3.8792   -4.4207    1.0582 H         1 <0>         0.0238
     62 H33        -3.5132   -4.3558   -0.6733 H         1 <0>         0.0238
     63 H34         0.2739   -2.1583    0.1408 H         1 <0>         0.0230
     64 H35         0.8036   -3.3036    1.3642 H         1 <0>         0.0230
     65 H36        -0.2799   -1.9804    1.8253 H         1 <0>         0.0230
@<TRIPOS>BOND
     1    1    8 1
     2    1   23 1
     3    2   19 1
     4    2   26 1
     5    3   22 1
     6    3   59 1
     7    4   23 2
     8    5   26 2
     9    6    7 1
    10    6    8 1
    11    6   11 1
    12    6   30 1
    13    7    9 1
    14    7   10 1
    15    7   31 1
    16    8   12 1
    17    8   32 1
    18    9   16 1
    19    9   18 1
    20    9   33 1
    21   10   15 1
    22   10   34 1
    23   10   35 1
    24   11   14 2
    25   11   17 1
    26   12   13 1
    27   12   36 1
    28   12   37 1
    29   13   14 1
    30   13   20 1
    31   13   38 1
    32   14   39 1
    33   15   19 1
    34   15   40 1
    35   15   41 1
    36   16   17 2
    37   16   42 1
    38   17   43 1
    39   18   44 1
    40   18   45 1
    41   18   46 1
    42   19   21 1
    43   19   47 1
    44   20   48 1
    45   20   49 1
    46   20   50 1
    47   21   22 1
    48   21   51 1
    49   21   52 1
    50   22   24 1
    51   22   53 1
    52   23   25 1
    53   24   26 1
    54   24   54 1
    55   24   55 1
    56   25   27 1
    57   25   28 1
    58   25   56 1
    59   27   29 1
    60   27   57 1
    61   27   58 1
    62   28   60 1
    63   28   61 1
    64   28   62 1
    65   29   63 1
    66   29   64 1
    67   29   65 1
