@<TRIPOS>MOLECULE
DB00966
   69    74     0     0     0
SMALL
USER_CHARGES

@<TRIPOS>ATOM
      1 O1         -4.6211    2.1193    3.2326 O.3       1 <0>        -0.4771
      2 O2         -2.8012    1.6683    1.9476 O.2       1 <0>        -0.2451
      3 N1         -0.1349   -2.2506   -0.6895 N.pl3     1 <0>        -0.3231
      4 N2          0.2885   -3.5621    1.0542 N.2       1 <0>        -0.2320
      5 N3          3.8386    1.7782    0.4278 N.pl3     1 <0>        -0.3267
      6 N4          4.9776    0.3988   -0.8912 N.2       1 <0>        -0.2275
      7 C1          1.0431   -1.7883   -0.1612 C.ar      1 <0>         0.0700
      8 C2         -0.5457   -3.3101    0.0706 C.2       1 <0>         0.1111
      9 C3          1.2861   -2.6232    0.9259 C.ar      1 <0>         0.0922
     10 C4         -0.8173   -1.7110   -1.8439 C.3       1 <0>         0.0500
     11 C5         -1.7891   -4.0526   -0.2219 C.3       1 <0>         0.0054
     12 C6          3.0337   -0.5534    0.2544 C.ar      1 <0>         0.0198
     13 C7          1.8912   -0.7433   -0.5298 C.ar      1 <0>        -0.0254
     14 C8          2.4388   -2.4180    1.7028 C.ar      1 <0>        -0.0223
     15 C9          3.3046   -1.3748    1.3514 C.ar      1 <0>        -0.0460
     16 C10         3.9494    0.5120   -0.0787 C.cat     1 <0>         0.1417
     17 C11        -1.7916   -0.6334   -1.4516 C.ar      1 <0>        -0.0277
     18 C12        -1.5967   -5.5804   -0.1504 C.3       1 <0>        -0.0491
     19 C13         2.7713   -3.2693    2.8845 C.3       1 <0>        -0.0376
     20 C14         4.8612    2.5297   -0.0917 C.ar      1 <0>         0.0688
     21 C15         5.5578    1.6463   -0.9117 C.ar      1 <0>         0.0896
     22 C16        -1.3667    0.6873   -1.3984 C.ar      1 <0>        -0.0563
     23 C17        -3.1027   -0.9744   -1.1482 C.ar      1 <0>        -0.0563
     24 C18        -0.5858   -6.0879   -1.1665 C.3       1 <0>        -0.0649
     25 C19         2.8276    2.2520    1.3474 C.3       1 <0>         0.0138
     26 C20        -3.5896    1.3544   -0.7274 C.ar      1 <0>        -0.0171
     27 C21        -2.2701    1.6857   -1.0342 C.ar      1 <0>        -0.0537
     28 C22        -4.0060    0.0242   -0.7843 C.ar      1 <0>        -0.0537
     29 C23         5.2255    3.8655    0.0799 C.ar      1 <0>        -0.0361
     30 C24         6.6876    2.1057   -1.6095 C.ar      1 <0>        -0.0342
     31 C25        -4.5271    2.3901   -0.3505 C.ar      1 <0>        -0.0039
     32 C26         6.3524    4.3060   -0.6222 C.ar      1 <0>        -0.0597
     33 C27         7.0719    3.4432   -1.4525 C.ar      1 <0>        -0.0596
     34 C28        -4.6956    2.7667    0.9837 C.ar      1 <0>         0.0665
     35 C29        -5.2741    3.0196   -1.3484 C.ar      1 <0>        -0.0532
     36 C30        -5.6069    3.7685    1.3183 C.ar      1 <0>        -0.0472
     37 C31        -6.1853    4.0213   -1.0137 C.ar      1 <0>        -0.0611
     38 C32        -6.3518    4.3957    0.3195 C.ar      1 <0>        -0.0609
     39 C33        -3.9361    2.1379    2.0582 C.2       1 <0>         0.3374
     40 H1         -1.2964   -2.5120   -2.4136 H         1 <0>         0.0542
     41 H2         -0.0598   -1.3069   -2.5274 H         1 <0>         0.0542
     42 H3         -2.5477   -3.7646    0.5159 H         1 <0>         0.0343
     43 H4         -2.2114   -3.8404   -1.2046 H         1 <0>         0.0343
     44 H5          1.6861   -0.1168   -1.3905 H         1 <0>         0.0646
     45 H6          4.2013   -1.2062    1.9463 H         1 <0>         0.0628
     46 H7         -1.2767   -5.8752    0.8562 H         1 <0>         0.0267
     47 H8         -2.5630   -6.0654   -0.3326 H         1 <0>         0.0267
     48 H9          2.0173   -4.0456    3.0489 H         1 <0>         0.0278
     49 H10         2.8241   -2.6561    3.7900 H         1 <0>         0.0278
     50 H11         3.7357   -3.7655    2.7345 H         1 <0>         0.0278
     51 H12        -0.3483    0.9665   -1.6466 H         1 <0>         0.0621
     52 H13        -3.4558   -1.9976   -1.2052 H         1 <0>         0.0621
     53 H14        -0.8670   -5.7907   -2.1820 H         1 <0>         0.0230
     54 H15         0.4210   -5.7108   -0.9631 H         1 <0>         0.0230
     55 H16        -0.5413   -7.1814   -1.1357 H         1 <0>         0.0230
     56 H17         2.9025    1.6727    2.2713 H         1 <0>         0.0456
     57 H18         2.9749    3.3096    1.5712 H         1 <0>         0.0456
     58 H19         1.8468    2.1148    0.8844 H         1 <0>         0.0456
     59 H20        -1.9296    2.7180   -0.9976 H         1 <0>         0.0624
     60 H21        -5.0324   -0.2506   -0.5519 H         1 <0>         0.0624
     61 H22         4.6743    4.5429    0.7217 H         1 <0>         0.0639
     62 H23         7.2533    1.4433   -2.2570 H         1 <0>         0.0639
     63 H24         6.6739    5.3394   -0.5191 H         1 <0>         0.0618
     64 H25         7.9436    3.8147   -1.9852 H         1 <0>         0.0618
     65 H26        -5.1582    2.7417   -2.3935 H         1 <0>         0.0624
     66 H27        -5.7509    4.0948    2.3449 H         1 <0>         0.0626
     67 H28        -6.7647    4.5104   -1.7912 H         1 <0>         0.0618
     68 H29        -7.0589    5.1781    0.5792 H         1 <0>         0.0618
     69 H30        -4.1039    1.6954    3.9504 H         1 <0>         0.2954
@<TRIPOS>BOND
     1    1   39 1
     2    1   69 1
     3    2   39 2
     4    3    7 1
     5    3    8 1
     6    3   10 1
     7    4    8 2
     8    4    9 1
     9    5   16 1
    10    5   20 2
    11    5   25 1
    12    6   16 1
    13    6   21 2
    14    7    9 ar
    15    7   13 ar
    16    8   11 1
    17    9   14 ar
    18   10   17 1
    19   10   40 1
    20   10   41 1
    21   11   18 1
    22   11   42 1
    23   11   43 1
    24   12   13 ar
    25   12   15 ar
    26   12   16 1
    27   13   44 1
    28   14   15 ar
    29   14   19 1
    30   15   45 1
    31   17   22 ar
    32   17   23 ar
    33   18   24 1
    34   18   46 1
    35   18   47 1
    36   19   48 1
    37   19   49 1
    38   19   50 1
    39   20   21 ar
    40   20   29 ar
    41   21   30 ar
    42   22   27 ar
    43   22   51 1
    44   23   28 ar
    45   23   52 1
    46   24   53 1
    47   24   54 1
    48   24   55 1
    49   25   56 1
    50   25   57 1
    51   25   58 1
    52   26   27 ar
    53   26   28 ar
    54   26   31 1
    55   27   59 1
    56   28   60 1
    57   29   32 ar
    58   29   61 1
    59   30   33 ar
    60   30   62 1
    61   31   34 ar
    62   31   35 ar
    63   32   33 ar
    64   32   63 1
    65   33   64 1
    66   34   36 ar
    67   34   39 1
    68   35   37 ar
    69   35   65 1
    70   36   38 ar
    71   36   66 1
    72   37   38 ar
    73   37   67 1
    74   38   68 1
