@<TRIPOS>MOLECULE
DB00710
   42    41     0     0     0
SMALL
USER_CHARGES

@<TRIPOS>ATOM
      1 P1         -3.4060   -0.0475    1.4768 P.3       1 <0>         0.3710
      2 P2         -2.4926    2.1459   -0.6078 P.3       1 <0>         0.3710
      3 O1         -4.1224    0.2418   -0.9702 O.3       1 <0>        -0.3671
      4 O2         -4.2580   -1.4094    1.2977 O.3       1 <0>        -0.3217
      5 O3         -4.5367    1.0550    1.8279 O.3       1 <0>        -0.3217
      6 O4         -3.7505    2.9917   -0.0496 O.3       1 <0>        -0.3217
      7 O5         -2.6497    2.2356   -2.2135 O.3       1 <0>        -0.3217
      8 O6         -2.2793   -0.1194    2.4634 O.2       1 <0>        -0.2551
      9 O7         -1.1529    2.5829   -0.0916 O.2       1 <0>        -0.2551
     10 N1          0.3321   -1.6124   -0.8156 N.3       1 <0>        -0.3052
     11 C1         -2.9016    0.3988   -0.2315 C.3       1 <0>         0.2682
     12 C2         -1.9032   -0.6189   -0.8239 C.3       1 <0>         0.0119
     13 C3         -0.5234   -0.6180   -0.1732 C.3       1 <0>         0.0024
     14 C4          1.6684   -1.6013   -0.2202 C.3       1 <0>        -0.0014
     15 C5          2.3012   -0.2181   -0.3627 C.3       1 <0>        -0.0402
     16 C6          3.7094   -0.1899    0.2352 C.3       1 <0>        -0.0521
     17 C7         -0.2621   -2.9452   -0.7097 C.3       1 <0>        -0.0128
     18 C8          4.3325    1.2017    0.1262 C.3       1 <0>        -0.0559
     19 C9          5.7445    1.2256    0.6892 C.3       1 <0>        -0.0653
     20 H1         -2.3829   -1.5989   -0.7286 H         1 <0>         0.0318
     21 H2         -1.8046   -0.4331   -1.9018 H         1 <0>         0.0318
     22 H3         -0.1321    0.3857   -0.3248 H         1 <0>         0.0428
     23 H4         -0.5874   -0.8037    0.9015 H         1 <0>         0.0428
     24 H5          2.3066   -2.3299   -0.7357 H         1 <0>         0.0426
     25 H6          1.6322   -1.8904    0.8386 H         1 <0>         0.0426
     26 H7          1.7384    0.5484    0.1777 H         1 <0>         0.0278
     27 H8          2.3401    0.0757   -1.4189 H         1 <0>         0.0278
     28 H9          3.6702   -0.4918    1.2890 H         1 <0>         0.0266
     29 H10         4.3425   -0.9183   -0.2861 H         1 <0>         0.0266
     30 H11         0.4595   -3.7111   -1.0207 H         1 <0>         0.0391
     31 H12        -0.5769   -3.1866    0.3122 H         1 <0>         0.0391
     32 H13        -1.1075   -3.0722   -1.3927 H         1 <0>         0.0391
     33 H14        -4.4368   -0.6691   -0.8407 H         1 <0>         0.2117
     34 H15         3.7170    1.9298    0.6673 H         1 <0>         0.0263
     35 H16         4.3599    1.5163   -0.9236 H         1 <0>         0.0263
     36 H17        -4.6095   -1.8580    2.0959 H         1 <0>         0.2198
     37 H18        -4.9383    1.0538    2.7228 H         1 <0>         0.2198
     38 H19        -3.7285    3.9706   -0.1077 H         1 <0>         0.2198
     39 H20        -2.4266    3.0765   -2.6664 H         1 <0>         0.2198
     40 H21         6.1705    2.2300    0.6019 H         1 <0>         0.0230
     41 H22         5.7495    0.9452    1.7473 H         1 <0>         0.0230
     42 H23         6.3951    0.5323    0.1466 H         1 <0>         0.0230
@<TRIPOS>BOND
     1    1    4 1
     2    1    5 1
     3    1    8 2
     4    1   11 1
     5    2    6 1
     6    2    7 1
     7    2    9 2
     8    2   11 1
     9    3   11 1
    10    3   33 1
    11    4   36 1
    12    5   37 1
    13    6   38 1
    14    7   39 1
    15   10   13 1
    16   10   14 1
    17   10   17 1
    18   11   12 1
    19   12   13 1
    20   12   20 1
    21   12   21 1
    22   13   22 1
    23   13   23 1
    24   14   15 1
    25   14   24 1
    26   14   25 1
    27   15   16 1
    28   15   26 1
    29   15   27 1
    30   16   18 1
    31   16   28 1
    32   16   29 1
    33   17   30 1
    34   17   31 1
    35   17   32 1
    36   18   19 1
    37   18   34 1
    38   18   35 1
    39   19   40 1
    40   19   41 1
    41   19   42 1
