@<TRIPOS>MOLECULE
DB00763
   13    13     0     0     0
SMALL
USER_CHARGES

@<TRIPOS>ATOM
      1 S1          0.0410   -2.7593    0.0002 S.2       1 <0>        -0.0129
      2 N1         -0.4495   -0.0076   -0.0005 N.pl3     1 <0>        -0.3295
      3 N2          1.7146   -0.6005   -0.0001 N.pl3     1 <0>        -0.3403
      4 C1          0.4058   -1.1413   -0.0005 C.2       1 <0>         0.1577
      5 C2          0.3404    1.1262   -0.0001 C.2       1 <0>         0.0225
      6 C3         -1.8968    0.0436    0.0001 C.3       1 <0>         0.0137
      7 C4          1.6301    0.7677   -0.0000 C.2       1 <0>         0.0201
      8 H1         -0.0873    2.1157   -0.0000 H         1 <0>         0.0824
      9 H2         -2.2327    0.5758    0.8948 H         1 <0>         0.0456
     10 H3         -2.3266   -0.9602   -0.0014 H         1 <0>         0.0456
     11 H4         -2.2333    0.5786   -0.8929 H         1 <0>         0.0456
     12 H5          2.5816   -1.1233    0.0001 H         1 <0>         0.1673
     13 H6          2.5129    1.3845    0.0003 H         1 <0>         0.0822
@<TRIPOS>BOND
     1    1    4 2
     2    2    4 1
     3    2    5 2
     4    2    6 1
     5    3    4 1
     6    3    7 2
     7    3   12 1
     8    5    7 1
     9    5    8 1
    10    6    9 1
    11    6   10 1
    12    6   11 1
    13    7   13 1
