@<TRIPOS>MOLECULE
DB00521
   45    46     0     0     0
SMALL
USER_CHARGES

@<TRIPOS>ATOM
      1 O1          0.6403   -1.7809    0.8837 O.3       1 <0>        -0.4890
      2 O2         -1.6234   -2.6441    2.2965 O.3       1 <0>        -0.3872
      3 O3          4.3613    3.3549    0.9560 O.2       1 <0>        -0.2755
      4 N1         -2.2809   -0.4642   -0.6228 N.3       1 <0>        -0.3088
      5 N2          4.1834    1.3464   -0.1439 N.am      1 <0>        -0.2851
      6 C1         -2.7065    0.9254   -0.7217 C.3       1 <0>         0.0108
      7 C2         -2.1261   -0.8636    0.7695 C.3       1 <0>         0.0256
      8 C3         -1.6891   -2.3242    0.9038 C.3       1 <0>         0.1015
      9 C4         -2.8627    1.2841   -2.2032 C.3       1 <0>        -0.0473
     10 C5         -4.0496    1.0770    0.0003 C.3       1 <0>        -0.0473
     11 C6         -1.6526    1.8279   -0.0693 C.3       1 <0>        -0.0473
     12 C7          2.3754   -0.1933    0.3791 C.ar      1 <0>         0.0159
     13 C8         -0.3279   -2.6079    0.2721 C.3       1 <0>         0.1166
     14 C9          1.9619    0.7036    1.5100 C.3       1 <0>        -0.0142
     15 C10         1.7205   -1.4064    0.1415 C.ar      1 <0>         0.1256
     16 C11         3.5000    0.1412   -0.3858 C.ar      1 <0>         0.0401
     17 C12         2.2997    2.1548    1.2027 C.3       1 <0>         0.0284
     18 C13         3.7178    2.3377    0.6986 C.2       1 <0>         0.2175
     19 C14         2.1780   -2.2664   -0.8579 C.ar      1 <0>        -0.0195
     20 C15         3.9697   -0.7282   -1.3731 C.ar      1 <0>        -0.0400
     21 C16         3.3017   -1.9289   -1.6120 C.ar      1 <0>        -0.0565
     22 H1         -1.4020   -0.2531    1.3171 H         1 <0>         0.0451
     23 H2         -3.0700   -0.7891    1.3196 H         1 <0>         0.0451
     24 H3         -1.3985   -0.5848   -1.1182 H         1 <0>         0.1225
     25 H4         -2.4368   -2.9872    0.4522 H         1 <0>         0.0640
     26 H5         -1.9149    1.1748   -2.7436 H         1 <0>         0.0247
     27 H6         -3.1941    2.3214   -2.3268 H         1 <0>         0.0247
     28 H7         -3.6027    0.6409   -2.6939 H         1 <0>         0.0247
     29 H8         -3.9656    1.0659    1.0922 H         1 <0>         0.0247
     30 H9         -4.7653    0.3035   -0.3034 H         1 <0>         0.0247
     31 H10        -4.5051    2.0432   -0.2512 H         1 <0>         0.0247
     32 H11        -1.6458    1.7786    1.0243 H         1 <0>         0.0247
     33 H12        -1.8495    2.8781   -0.3187 H         1 <0>         0.0247
     34 H13        -0.6442    1.6008   -0.4347 H         1 <0>         0.0247
     35 H14        -0.3970   -2.4558   -0.8115 H         1 <0>         0.0723
     36 H15        -0.0545   -3.6522    0.4666 H         1 <0>         0.0723
     37 H16         0.8870    0.6288    1.7050 H         1 <0>         0.0319
     38 H17         2.4901    0.3802    2.4154 H         1 <0>         0.0319
     39 H18         2.1613    2.7639    2.1027 H         1 <0>         0.0362
     40 H19         1.6297    2.5460    0.4273 H         1 <0>         0.0362
     41 H20         5.0721    1.4904   -0.6150 H         1 <0>         0.1548
     42 H21         1.7165   -3.2294   -1.0559 H         1 <0>         0.0654
     43 H22         4.8478   -0.4795   -1.9632 H         1 <0>         0.0636
     44 H23         3.6645   -2.6073   -2.3789 H         1 <0>         0.0619
     45 H24        -2.5137   -2.5232    2.6684 H         1 <0>         0.2100
@<TRIPOS>BOND
     1    1   13 1
     2    1   15 1
     3    2    8 1
     4    2   45 1
     5    3   18 2
     6    4    6 1
     7    4    7 1
     8    4   24 1
     9    5   16 1
    10    5   18 am
    11    5   41 1
    12    6    9 1
    13    6   10 1
    14    6   11 1
    15    7    8 1
    16    7   22 1
    17    7   23 1
    18    8   13 1
    19    8   25 1
    20    9   26 1
    21    9   27 1
    22    9   28 1
    23   10   29 1
    24   10   30 1
    25   10   31 1
    26   11   32 1
    27   11   33 1
    28   11   34 1
    29   12   14 1
    30   12   15 ar
    31   12   16 ar
    32   13   35 1
    33   13   36 1
    34   14   17 1
    35   14   37 1
    36   14   38 1
    37   15   19 ar
    38   16   20 ar
    39   17   18 1
    40   17   39 1
    41   17   40 1
    42   19   21 ar
    43   19   42 1
    44   20   21 ar
    45   20   43 1
    46   21   44 1
