@<TRIPOS>MOLECULE
DB00647
   54    55     0     0     0
SMALL
USER_CHARGES

@<TRIPOS>ATOM
      1 O1         -0.1584   -0.8601    0.7911 O.3       1 <0>        -0.4526
      2 O2         -0.1315   -2.9828   -0.1127 O.2       1 <0>        -0.2508
      3 N1          1.3403    3.0541    1.1259 N.3       1 <0>        -0.3080
      4 C1          0.2141   -0.3138   -0.4833 C.3       1 <0>         0.1460
      5 C2          0.3160    1.2554   -0.3001 C.3       1 <0>         0.0135
      6 C3         -0.8962   -0.7061   -1.5105 C.3       1 <0>         0.0170
      7 C4          1.3475    1.6292    0.8005 C.3       1 <0>         0.0049
      8 C5          1.5677   -0.8961   -0.9238 C.ar      1 <0>        -0.0036
      9 C6          0.6620    1.9882   -1.6117 C.3       1 <0>        -0.0573
     10 C7         -2.2892   -0.1944   -1.1968 C.ar      1 <0>        -0.0432
     11 C8          2.4830   -1.2211    0.0455 C.ar      1 <0>        -0.0548
     12 C9          1.7984   -1.0634   -2.2661 C.ar      1 <0>        -0.0548
     13 C10        -0.2956   -2.2169    0.8270 C.2       1 <0>         0.3077
     14 C11         2.2763    3.3354    2.2143 C.3       1 <0>        -0.0130
     15 C12        -0.0084    3.4902    1.4870 C.3       1 <0>        -0.0130
     16 C13        -3.1337   -0.9730   -0.4277 C.ar      1 <0>        -0.0584
     17 C14        -2.6791    1.0378   -1.6877 C.ar      1 <0>        -0.0584
     18 C15         3.7109   -1.7488   -0.3543 C.ar      1 <0>        -0.0614
     19 C16         3.0261   -1.5913   -2.6659 C.ar      1 <0>        -0.0614
     20 C17        -0.6863   -2.6275    2.2274 C.3       1 <0>         0.0421
     21 C18         3.9824   -1.9339   -1.7100 C.ar      1 <0>        -0.0617
     22 C19        -4.4148   -0.5025   -0.1390 C.ar      1 <0>        -0.0615
     23 C20        -3.9601    1.5082   -1.3988 C.ar      1 <0>        -0.0615
     24 C21        -4.8279    0.7380   -0.6244 C.ar      1 <0>        -0.0617
     25 C22        -0.8787   -4.1289    2.3503 C.3       1 <0>        -0.0552
     26 H1         -0.6727    1.5745    0.0392 H         1 <0>         0.0353
     27 H2         -0.9742   -1.7790   -1.7109 H         1 <0>         0.0355
     28 H3         -0.6830   -0.3006   -2.5050 H         1 <0>         0.0355
     29 H4          1.1501    1.0436    1.7074 H         1 <0>         0.0430
     30 H5          2.3575    1.3810    0.4574 H         1 <0>         0.0430
     31 H6          1.7229    1.8727   -1.8605 H         1 <0>         0.0234
     32 H7          0.4747    3.0626   -1.5119 H         1 <0>         0.0234
     33 H8          0.0924    1.6512   -2.4764 H         1 <0>         0.0234
     34 H9          2.3034   -1.0834    1.1063 H         1 <0>         0.0622
     35 H10         1.1150   -0.7906   -3.0576 H         1 <0>         0.0622
     36 H11         2.0003    2.8217    3.1424 H         1 <0>         0.0391
     37 H12         2.3203    4.4115    2.4159 H         1 <0>         0.0391
     38 H13         3.2917    3.0286    1.9389 H         1 <0>         0.0391
     39 H14        -0.4714    2.8441    2.2420 H         1 <0>         0.0391
     40 H15        -0.6666    3.5637    0.6161 H         1 <0>         0.0391
     41 H16         0.0190    4.5071    1.8980 H         1 <0>         0.0391
     42 H17        -2.8387   -1.9493   -0.0595 H         1 <0>         0.0620
     43 H18        -2.0380    1.6457   -2.3132 H         1 <0>         0.0620
     44 H19         4.4563   -2.0139    0.3898 H         1 <0>         0.0618
     45 H20         3.2415   -1.7290   -3.7216 H         1 <0>         0.0618
     46 H21        -1.6204   -2.1200    2.4905 H         1 <0>         0.0375
     47 H22         0.1030   -2.3054    2.9150 H         1 <0>         0.0375
     48 H23         4.9391   -2.3428   -2.0211 H         1 <0>         0.0618
     49 H24        -5.0923   -1.1044    0.4595 H         1 <0>         0.0618
     50 H25        -4.2844    2.4713   -1.7819 H         1 <0>         0.0618
     51 H26        -5.8261    1.1034   -0.4017 H         1 <0>         0.0618
     52 H27        -1.6659   -4.4804    1.6750 H         1 <0>         0.0235
     53 H28        -1.1610   -4.3949    3.3734 H         1 <0>         0.0235
     54 H29         0.0424   -4.6651    2.0983 H         1 <0>         0.0235
@<TRIPOS>BOND
     1    1    4 1
     2    1   13 1
     3    2   13 2
     4    3    7 1
     5    3   14 1
     6    3   15 1
     7    4    5 1
     8    4    6 1
     9    4    8 1
    10    5    7 1
    11    5    9 1
    12    5   26 1
    13    6   10 1
    14    6   27 1
    15    6   28 1
    16    7   29 1
    17    7   30 1
    18    8   11 ar
    19    8   12 ar
    20    9   31 1
    21    9   32 1
    22    9   33 1
    23   10   16 ar
    24   10   17 ar
    25   11   18 ar
    26   11   34 1
    27   12   19 ar
    28   12   35 1
    29   13   20 1
    30   14   36 1
    31   14   37 1
    32   14   38 1
    33   15   39 1
    34   15   40 1
    35   15   41 1
    36   16   22 ar
    37   16   42 1
    38   17   23 ar
    39   17   43 1
    40   18   21 ar
    41   18   44 1
    42   19   21 ar
    43   19   45 1
    44   20   25 1
    45   20   46 1
    46   20   47 1
    47   21   48 1
    48   22   24 ar
    49   22   49 1
    50   23   24 ar
    51   23   50 1
    52   24   51 1
    53   25   52 1
    54   25   53 1
    55   25   54 1
