@<TRIPOS>MOLECULE
DB00288
   71    76     0     0     0
SMALL
USER_CHARGES

@<TRIPOS>ATOM
      1 F1         -2.1946    0.4099    1.3447 F         1 <0>        -0.2377
      2 O1          2.0477    0.8334    0.3174 O.3       1 <0>        -0.3314
      3 O2          2.2101    2.3984   -1.4276 O.3       1 <0>        -0.3420
      4 O3         -1.7315   -2.7857   -0.2326 O.3       1 <0>        -0.3886
      5 O4          3.6507   -0.6027   -2.1211 O.2       1 <0>        -0.2906
      6 O5          4.5203   -2.1705   -0.0269 O.3       1 <0>        -0.4570
      7 O6         -6.7345    0.7876    3.0852 O.2       1 <0>        -0.2879
      8 O7          4.0666   -3.7862    1.5610 O.2       1 <0>        -0.2512
      9 C1          0.3761   -0.5736   -0.8403 C.3       1 <0>         0.0123
     10 C2         -0.5579    0.6537   -0.9512 C.3       1 <0>        -0.0241
     11 C3          1.7491    0.1424   -0.8926 C.3       1 <0>         0.1651
     12 C4         -2.0466    0.2823   -1.0041 C.3       1 <0>         0.0004
     13 C5          1.5707    1.2377   -1.9468 C.3       1 <0>         0.0988
     14 C6         -2.4257   -0.4841    0.3104 C.3       1 <0>         0.1526
     15 C7          0.0510    1.4665   -2.0959 C.3       1 <0>        -0.0195
     16 C8          0.0384   -1.2874    0.4818 C.3       1 <0>        -0.0150
     17 C9         -1.4555   -1.6698    0.5997 C.3       1 <0>         0.0910
     18 C10        -3.9683   -0.8174    0.3761 C.3       1 <0>         0.0443
     19 C11        -2.9081    1.5463   -1.1790 C.3       1 <0>        -0.0432
     20 C12         0.2568   -1.5494   -2.0425 C.3       1 <0>        -0.0561
     21 C13         2.4973    2.1368   -0.0567 C.3       1 <0>         0.1718
     22 C14         2.9209   -0.7600   -1.1435 C.2       1 <0>         0.2051
     23 C15        -4.3999    1.2402   -1.1178 C.3       1 <0>        -0.0301
     24 C16        -4.7310    0.4937    0.1492 C.2       1 <0>        -0.0532
     25 C17         4.0086    2.2538    0.2010 C.3       1 <0>         0.0015
     26 C18         1.8315    3.1914    0.8328 C.3       1 <0>         0.0015
     27 C19        -4.4400   -1.8336   -0.6893 C.3       1 <0>        -0.0493
     28 C20        -4.3162   -1.4288    1.7258 C.2       1 <0>        -0.0674
     29 C21         4.1732    3.4548    1.1270 C.3       1 <0>        -0.0480
     30 C22         2.8690    3.4964    1.9026 C.3       1 <0>        -0.0480
     31 C23         3.1462   -1.8632   -0.1317 C.3       1 <0>         0.1531
     32 C24        -5.6138    1.0037    1.0223 C.2       1 <0>        -0.0148
     33 C25        -5.1930   -0.9250    2.5998 C.2       1 <0>        -0.0180
     34 C26        -5.9152    0.3244    2.2989 C.2       1 <0>         0.1787
     35 C27         4.8528   -3.1601    0.8633 C.2       1 <0>         0.3043
     36 C28         6.3356   -3.3774    0.8673 C.3       1 <0>         0.0332
     37 H1         -0.4333    1.2710   -0.0479 H         1 <0>         0.0312
     38 H2         -2.2327   -0.3595   -1.8706 H         1 <0>         0.0336
     39 H3          1.9984    1.0152   -2.9293 H         1 <0>         0.0631
     40 H4         -0.2966    1.0797   -3.0604 H         1 <0>         0.0294
     41 H5         -0.2184    2.5256   -2.0328 H         1 <0>         0.0294
     42 H6          0.2872   -0.6407    1.3323 H         1 <0>         0.0297
     43 H7          0.6315   -2.2000    0.5888 H         1 <0>         0.0297
     44 H8         -1.6063   -2.0009    1.6337 H         1 <0>         0.0626
     45 H9         -2.6874    2.0199   -2.1428 H         1 <0>         0.0272
     46 H10        -2.6558    2.2808   -0.4027 H         1 <0>         0.0272
     47 H11         0.6477   -1.1185   -2.9703 H         1 <0>         0.0236
     48 H12         0.8156   -2.4728   -1.8604 H         1 <0>         0.0236
     49 H13        -0.7727   -1.8437   -2.2555 H         1 <0>         0.0236
     50 H14        -4.6994    0.6461   -1.9887 H         1 <0>         0.0310
     51 H15        -4.9575    2.1824   -1.1850 H         1 <0>         0.0310
     52 H16         4.5867    2.3947   -0.7182 H         1 <0>         0.0317
     53 H17         4.3892    1.3563    0.7036 H         1 <0>         0.0317
     54 H18         0.8979    2.8410    1.2838 H         1 <0>         0.0317
     55 H19         1.6109    4.1007    0.2604 H         1 <0>         0.0317
     56 H20        -5.5357   -1.8504   -0.7604 H         1 <0>         0.0242
     57 H21        -4.0592   -1.6044   -1.6891 H         1 <0>         0.0242
     58 H22        -4.1371   -2.8590   -0.4518 H         1 <0>         0.0242
     59 H23        -3.8328   -2.3662    1.9928 H         1 <0>         0.0583
     60 H24        -1.1375   -3.5085    0.0312 H         1 <0>         0.2099
     61 H25         4.2906    4.3707    0.5354 H         1 <0>         0.0267
     62 H26         5.0452    3.3580    1.7800 H         1 <0>         0.0267
     63 H27         2.8592    2.7203    2.6770 H         1 <0>         0.0267
     64 H28         2.6993    4.4646    2.3816 H         1 <0>         0.0267
     65 H29         2.5961   -2.7515   -0.4545 H         1 <0>         0.0779
     66 H30         2.8017   -1.5326    0.8524 H         1 <0>         0.0779
     67 H31        -6.1279    1.9404    0.8341 H         1 <0>         0.0656
     68 H32        -5.4020   -1.4227    3.5396 H         1 <0>         0.0653
     69 H33         6.8432   -2.4584    1.1709 H         1 <0>         0.0342
     70 H34         6.6663   -3.6899   -0.1262 H         1 <0>         0.0342
     71 H35         6.5851   -4.1664    1.5826 H         1 <0>         0.0342
@<TRIPOS>BOND
     1    1   14 1
     2    2   11 1
     3    2   21 1
     4    3   13 1
     5    3   21 1
     6    4   17 1
     7    4   60 1
     8    5   22 2
     9    6   31 1
    10    6   35 1
    11    7   34 2
    12    8   35 2
    13    9   10 1
    14    9   11 1
    15    9   16 1
    16    9   20 1
    17   10   12 1
    18   10   15 1
    19   10   37 1
    20   11   13 1
    21   11   22 1
    22   12   14 1
    23   12   19 1
    24   12   38 1
    25   13   15 1
    26   13   39 1
    27   14   17 1
    28   14   18 1
    29   15   40 1
    30   15   41 1
    31   16   17 1
    32   16   42 1
    33   16   43 1
    34   17   44 1
    35   18   24 1
    36   18   27 1
    37   18   28 1
    38   19   23 1
    39   19   45 1
    40   19   46 1
    41   20   47 1
    42   20   48 1
    43   20   49 1
    44   21   25 1
    45   21   26 1
    46   22   31 1
    47   23   24 1
    48   23   50 1
    49   23   51 1
    50   24   32 2
    51   25   29 1
    52   25   52 1
    53   25   53 1
    54   26   30 1
    55   26   54 1
    56   26   55 1
    57   27   56 1
    58   27   57 1
    59   27   58 1
    60   28   33 2
    61   28   59 1
    62   29   30 1
    63   29   61 1
    64   29   62 1
    65   30   63 1
    66   30   64 1
    67   31   65 1
    68   31   66 1
    69   32   34 1
    70   32   67 1
    71   33   34 1
    72   33   68 1
    73   35   36 1
    74   36   69 1
    75   36   70 1
    76   36   71 1
