@<TRIPOS>MOLECULE
DB00776
   31    33     0     0     0
SMALL
USER_CHARGES

@<TRIPOS>ATOM
      1 O1          1.1979   -3.1803   -0.9184 O.2       1 <0>        -0.2916
      2 O2          0.8849    2.9433   -1.3732 O.2       1 <0>        -0.2521
      3 N1          0.0271    0.9688   -0.4211 N.am      1 <0>        -0.2237
      4 N2         -1.3606    2.6767   -1.3032 N.am      1 <0>        -0.3126
      5 C1         -1.4118   -1.0186   -0.3457 C.ar      1 <0>        -0.0181
      6 C2         -1.1057    0.2723    0.0990 C.ar      1 <0>         0.0464
      7 C3         -0.5543   -1.6591   -1.3891 C.3       1 <0>         0.0375
      8 C4          1.3089    0.3996   -0.0753 C.ar      1 <0>         0.0532
      9 C5          1.6469   -0.9692   -0.1935 C.ar      1 <0>         0.0395
     10 C6          0.7904   -2.0228   -0.8277 C.2       1 <0>         0.1693
     11 C7         -2.5222   -1.6887    0.1852 C.ar      1 <0>        -0.0564
     12 C8         -1.9239    0.8861    1.0617 C.ar      1 <0>        -0.0396
     13 C9          2.2796    1.2677    0.4752 C.ar      1 <0>        -0.0392
     14 C10         2.9166   -1.4120    0.2348 C.ar      1 <0>        -0.0494
     15 C11        -0.0730    2.2481   -1.0224 C.2       1 <0>         0.3084
     16 C12        -3.3271   -1.0745    1.1442 C.ar      1 <0>        -0.0614
     17 C13        -3.0291    0.2130    1.5813 C.ar      1 <0>        -0.0600
     18 C14         3.5321    0.8134    0.8898 C.ar      1 <0>        -0.0600
     19 C15         3.8501   -0.5287    0.7708 C.ar      1 <0>        -0.0610
     20 H1         -1.0308   -2.5745   -1.7617 H         1 <0>         0.0394
     21 H2         -0.4271   -1.0091   -2.2626 H         1 <0>         0.0394
     22 H3         -2.7703   -2.6932   -0.1482 H         1 <0>         0.0621
     23 H4         -1.6967    1.8841    1.4289 H         1 <0>         0.0636
     24 H5          2.0596    2.3199    0.6429 H         1 <0>         0.0636
     25 H6          3.2097   -2.4561    0.1493 H         1 <0>         0.0625
     26 H7         -4.1865   -1.6007    1.5492 H         1 <0>         0.0618
     27 H8         -3.6539    0.6915    2.3297 H         1 <0>         0.0618
     28 H9          4.2482    1.5088    1.3174 H         1 <0>         0.0618
     29 H10         4.8213   -0.8915    1.0932 H         1 <0>         0.0618
     30 H11        -1.5127    3.5770   -1.7463 H         1 <0>         0.1465
     31 H12        -2.1875    2.1084   -1.1644 H         1 <0>         0.1465
@<TRIPOS>BOND
     1    1   10 2
     2    2   15 2
     3    3    6 1
     4    3    8 1
     5    3   15 am
     6    4   15 am
     7    4   30 1
     8    4   31 1
     9    5    6 ar
    10    5    7 1
    11    5   11 ar
    12    6   12 ar
    13    7   10 1
    14    7   20 1
    15    7   21 1
    16    8    9 ar
    17    8   13 ar
    18    9   10 1
    19    9   14 ar
    20   11   16 ar
    21   11   22 1
    22   12   17 ar
    23   12   23 1
    24   13   18 ar
    25   13   24 1
    26   14   19 ar
    27   14   25 1
    28   16   17 ar
    29   16   26 1
    30   17   27 1
    31   18   19 ar
    32   18   28 1
    33   19   29 1
