@<TRIPOS>MOLECULE
DB00255
   40    41     0     0     0
SMALL
USER_CHARGES

@<TRIPOS>ATOM
      1 O1          5.9946    0.1390    0.0377 O.3       1 <0>        -0.5068
      2 O2         -5.9763   -0.1317    0.4713 O.3       1 <0>        -0.5068
      3 C1          0.4333   -0.5261    0.2491 C.2       1 <0>        -0.0368
      4 C2         -0.4147    0.5332    0.2648 C.2       1 <0>        -0.0368
      5 C3         -0.0090   -1.9739    0.3390 C.3       1 <0>        -0.0297
      6 C4          0.0313    1.9825    0.2815 C.3       1 <0>        -0.0297
      7 C5          1.9039   -0.3498    0.1939 C.ar      1 <0>        -0.0214
      8 C6         -1.8853    0.3572    0.3199 C.ar      1 <0>        -0.0214
      9 C7         -0.2751   -2.5829   -1.0316 C.3       1 <0>        -0.0612
     10 C8          0.1972    2.5523   -1.1215 C.3       1 <0>        -0.0612
     11 C9          2.6125   -0.2533    1.3753 C.ar      1 <0>        -0.0509
     12 C10        -2.5072    0.2943    1.5515 C.ar      1 <0>        -0.0509
     13 C11         2.5242   -0.2876   -1.0388 C.ar      1 <0>        -0.0509
     14 C12        -2.5923    0.2611   -0.8628 C.ar      1 <0>        -0.0509
     15 C13         3.9965   -0.0876    1.3223 C.ar      1 <0>        -0.0196
     16 C14        -3.8913    0.1287    1.6026 C.ar      1 <0>        -0.0196
     17 C15         3.9082   -0.1220   -1.0919 C.ar      1 <0>        -0.0196
     18 C16        -3.9764    0.0956   -0.8118 C.ar      1 <0>        -0.0196
     19 C17         4.6444   -0.0221    0.0887 C.ar      1 <0>         0.1169
     20 C18        -4.6261    0.0294    0.4209 C.ar      1 <0>         0.1169
     21 H1         -0.9113   -2.0706    0.9531 H         1 <0>         0.0311
     22 H2          0.7497   -2.5743    0.8574 H         1 <0>         0.0311
     23 H3         -0.6885    2.5981    0.8361 H         1 <0>         0.0311
     24 H4          0.9754    2.0957    0.8261 H         1 <0>         0.0311
     25 H5         -0.6233   -3.6150   -0.9184 H         1 <0>         0.0233
     26 H6          0.6342   -2.6073   -1.6407 H         1 <0>         0.0233
     27 H7         -1.0397   -2.0335   -1.5865 H         1 <0>         0.0233
     28 H8          0.9202    1.9865   -1.7145 H         1 <0>         0.0233
     29 H9          0.5520    3.5866   -1.0629 H         1 <0>         0.0233
     30 H10        -0.7537    2.5606   -1.6637 H         1 <0>         0.0233
     31 H11         2.1179   -0.3032    2.3415 H         1 <0>         0.0625
     32 H12        -1.9448    0.3706    2.4779 H         1 <0>         0.0625
     33 H13         1.9622   -0.3650   -1.9653 H         1 <0>         0.0625
     34 H14        -2.0982    0.3120   -1.8290 H         1 <0>         0.0625
     35 H15         4.5584   -0.0110    2.2492 H         1 <0>         0.0654
     36 H16        -4.3915    0.0779    2.5659 H         1 <0>         0.0654
     37 H17         4.4071   -0.0717   -2.0559 H         1 <0>         0.0654
     38 H18        -4.5373    0.0197   -1.7395 H         1 <0>         0.0654
     39 H19         6.3406    0.1895    0.9454 H         1 <0>         0.2921
     40 H20        -6.3217   -0.1817   -0.4365 H         1 <0>         0.2921
@<TRIPOS>BOND
     1    1   19 1
     2    1   39 1
     3    2   20 1
     4    2   40 1
     5    3    4 2
     6    3    5 1
     7    3    7 1
     8    4    6 1
     9    4    8 1
    10    5    9 1
    11    5   21 1
    12    5   22 1
    13    6   10 1
    14    6   23 1
    15    6   24 1
    16    7   11 ar
    17    7   13 ar
    18    8   12 ar
    19    8   14 ar
    20    9   25 1
    21    9   26 1
    22    9   27 1
    23   10   28 1
    24   10   29 1
    25   10   30 1
    26   11   15 ar
    27   11   31 1
    28   12   16 ar
    29   12   32 1
    30   13   17 ar
    31   13   33 1
    32   14   18 ar
    33   14   34 1
    34   15   19 ar
    35   15   35 1
    36   16   20 ar
    37   16   36 1
    38   17   19 ar
    39   17   37 1
    40   18   20 ar
    41   18   38 1
