@<TRIPOS>MOLECULE
DB00307
   54    56     0     0     0
SMALL
USER_CHARGES

@<TRIPOS>ATOM
      1 O1         -6.8771    1.8793   -1.6803 O.3       1 <0>        -0.4771
      2 O2         -7.3380   -0.3112   -2.0753 O.2       1 <0>        -0.2451
      3 C1          2.3204    1.8248    0.2400 C.3       1 <0>        -0.0095
      4 C2          3.4169   -0.8484   -0.7696 C.3       1 <0>        -0.0095
      5 C3          3.8151    1.5521   -0.0396 C.3       1 <0>        -0.0431
      6 C4          4.0098    0.5280   -1.1449 C.3       1 <0>        -0.0431
      7 C5          1.5125    0.5230    0.3178 C.ar      1 <0>        -0.0374
      8 C6          2.0170   -0.7130   -0.1571 C.ar      1 <0>        -0.0377
      9 C7          2.2625    2.6193    1.5666 C.3       1 <0>        -0.0558
     10 C8          1.7291    2.7082   -0.8809 C.3       1 <0>        -0.0558
     11 C9          3.3984   -1.6853   -2.0711 C.3       1 <0>        -0.0558
     12 C10         4.3369   -1.5567    0.2494 C.3       1 <0>        -0.0558
     13 C11         0.2025    0.5577    0.8464 C.ar      1 <0>        -0.0498
     14 C12         1.2107   -1.8657   -0.0240 C.ar      1 <0>        -0.0543
     15 C13        -0.5792   -0.5915    0.9474 C.ar      1 <0>        -0.0147
     16 C14        -0.0711   -1.8066    0.5194 C.ar      1 <0>        -0.0425
     17 C15        -1.9218   -0.4821    1.5026 C.2       1 <0>        -0.0176
     18 C16        -0.8640   -3.0691    0.6258 C.3       1 <0>        -0.0391
     19 C17        -3.1576   -0.2109    0.6954 C.ar      1 <0>        -0.0178
     20 C18        -2.0992   -0.6309    2.8428 C.2       1 <0>        -0.0904
     21 C19        -3.8546   -1.2804    0.1912 C.ar      1 <0>        -0.0533
     22 C20        -3.5337    1.0942    0.4994 C.ar      1 <0>        -0.0533
     23 C21        -5.0032   -1.0280   -0.5590 C.ar      1 <0>        -0.0472
     24 C22        -4.6824    1.3468   -0.2507 C.ar      1 <0>        -0.0472
     25 C23        -5.4171    0.2856   -0.7800 C.ar      1 <0>         0.0589
     26 C24        -6.6147    0.5487   -1.5618 C.2       1 <0>         0.3368
     27 H1          4.3153    1.2005    0.8716 H         1 <0>         0.0274
     28 H2          4.3240    2.4842   -0.3176 H         1 <0>         0.0274
     29 H3          3.5510    0.9014   -2.0691 H         1 <0>         0.0274
     30 H4          5.0815    0.4314   -1.3624 H         1 <0>         0.0274
     31 H5          2.5696    1.9964    2.4150 H         1 <0>         0.0238
     32 H6          2.9295    3.4889    1.5314 H         1 <0>         0.0238
     33 H7          1.2599    3.0021    1.7840 H         1 <0>         0.0238
     34 H8          2.3186    3.6222   -1.0164 H         1 <0>         0.0238
     35 H9          1.6964    2.1841   -1.8423 H         1 <0>         0.0238
     36 H10         0.7019    3.0157   -0.6517 H         1 <0>         0.0238
     37 H11         4.3836   -1.6818   -2.5526 H         1 <0>         0.0238
     38 H12         3.1407   -2.7345   -1.8927 H         1 <0>         0.0238
     39 H13         2.6737   -1.2842   -2.7896 H         1 <0>         0.0238
     40 H14         5.3667   -1.6145   -0.1212 H         1 <0>         0.0238
     41 H15         4.3559   -1.0387    1.2144 H         1 <0>         0.0238
     42 H16         4.0050   -2.5830    0.4463 H         1 <0>         0.0238
     43 H17        -0.2179    1.5051    1.1784 H         1 <0>         0.0627
     44 H18         1.5929   -2.8316   -0.3466 H         1 <0>         0.0623
     45 H19        -1.4510   -3.1239    1.5468 H         1 <0>         0.0278
     46 H20        -1.5207   -3.1764   -0.2424 H         1 <0>         0.0278
     47 H21        -0.2022   -3.9433    0.6454 H         1 <0>         0.0278
     48 H22        -1.2618   -0.8296    3.5054 H         1 <0>         0.0541
     49 H23        -3.0808   -0.5580    3.3017 H         1 <0>         0.0541
     50 H24        -3.5624   -2.3083    0.3717 H         1 <0>         0.0624
     51 H25        -2.9676    1.9261    0.9079 H         1 <0>         0.0624
     52 H26        -5.5646   -1.8687   -0.9582 H         1 <0>         0.0626
     53 H27        -4.9687    2.3844   -0.3982 H         1 <0>         0.0626
     54 H28        -7.6866    2.0459   -2.2087 H         1 <0>         0.2954
@<TRIPOS>BOND
     1    1   26 1
     2    1   54 1
     3    2   26 2
     4    3    5 1
     5    3    7 1
     6    3    9 1
     7    3   10 1
     8    4    6 1
     9    4    8 1
    10    4   11 1
    11    4   12 1
    12    5    6 1
    13    5   27 1
    14    5   28 1
    15    6   29 1
    16    6   30 1
    17    7    8 ar
    18    7   13 ar
    19    8   14 ar
    20    9   31 1
    21    9   32 1
    22    9   33 1
    23   10   34 1
    24   10   35 1
    25   10   36 1
    26   11   37 1
    27   11   38 1
    28   11   39 1
    29   12   40 1
    30   12   41 1
    31   12   42 1
    32   13   15 ar
    33   13   43 1
    34   14   16 ar
    35   14   44 1
    36   15   16 ar
    37   15   17 1
    38   16   18 1
    39   17   19 1
    40   17   20 2
    41   18   45 1
    42   18   46 1
    43   18   47 1
    44   19   21 ar
    45   19   22 ar
    46   20   48 1
    47   20   49 1
    48   21   23 ar
    49   21   50 1
    50   22   24 ar
    51   22   51 1
    52   23   25 ar
    53   23   52 1
    54   24   25 ar
    55   24   53 1
    56   25   26 1
