@<TRIPOS>MOLECULE
DB00680
   55    58     0     0     0
SMALL
USER_CHARGES

@<TRIPOS>ATOM
      1 S1          0.8098    4.2236   -1.4820 S.3       1 <0>        -0.0857
      2 O1          3.2219   -4.8430   -1.5104 O.3       1 <0>        -0.3772
      3 O2          1.6101    0.7051    2.5972 O.2       1 <0>        -0.2749
      4 O3         -5.6318   -0.3494    0.4339 O.3       1 <0>        -0.4504
      5 O4         -5.4374    1.4101   -1.0142 O.2       1 <0>        -0.2261
      6 N1          2.2561   -2.7270    0.1301 N.3       1 <0>        -0.2975
      7 N2          1.1206    1.7938    0.5839 N.am      1 <0>        -0.2381
      8 N3         -3.6051    0.6082    0.2106 N.am      1 <0>        -0.2511
      9 C1          2.4064   -1.4412    0.8082 C.3       1 <0>         0.0073
     10 C2          3.2403   -3.6979    0.6284 C.3       1 <0>         0.0224
     11 C3          2.3963   -2.5695   -1.3241 C.3       1 <0>         0.0224
     12 C4          1.1179   -0.6532    0.6913 C.3       1 <0>         0.0376
     13 C5          3.0727   -5.0271   -0.1023 C.3       1 <0>         0.0604
     14 C6          2.2476   -3.9253   -2.0083 C.3       1 <0>         0.0604
     15 C7          1.2886    0.6690    1.4091 C.2       1 <0>         0.2254
     16 C8         -0.1694    2.0464   -0.0165 C.ar      1 <0>         0.0568
     17 C9          2.2135    2.7249    0.4287 C.ar      1 <0>         0.0550
     18 C10        -0.4151    3.0781   -0.9316 C.ar      1 <0>         0.0346
     19 C11         2.1678    3.8415   -0.4183 C.ar      1 <0>         0.0345
     20 C12        -1.2749    1.2450    0.3563 C.ar      1 <0>        -0.0175
     21 C13         3.4246    2.5029    1.1259 C.ar      1 <0>        -0.0388
     22 C14        -1.7037    3.2584   -1.4754 C.ar      1 <0>        -0.0444
     23 C15        -2.5500    1.4314   -0.1836 C.ar      1 <0>         0.0383
     24 C16         3.2712    4.7151   -0.5110 C.ar      1 <0>        -0.0462
     25 C17        -2.7640    2.4378   -1.1081 C.ar      1 <0>        -0.0392
     26 C18         4.5149    3.3720    1.0278 C.ar      1 <0>        -0.0599
     27 C19         4.4351    4.4872    0.2134 C.ar      1 <0>        -0.0606
     28 C20        -4.9333    0.6391   -0.2067 C.2       1 <0>         0.4045
     29 C21        -7.0235   -0.4474    0.1093 C.3       1 <0>         0.0913
     30 C22        -7.6356   -1.5831    0.9012 C.3       1 <0>        -0.0305
     31 H1          3.2638   -0.8719    0.4251 H         1 <0>         0.0431
     32 H2          2.6047   -1.6074    1.8757 H         1 <0>         0.0431
     33 H3          4.2589   -3.3193    0.4719 H         1 <0>         0.0449
     34 H4          3.1012   -3.8675    1.7023 H         1 <0>         0.0449
     35 H5          3.3805   -2.1485   -1.5686 H         1 <0>         0.0449
     36 H6          1.6329   -1.9018   -1.7345 H         1 <0>         0.0449
     37 H7          0.2945   -1.2004    1.1647 H         1 <0>         0.0371
     38 H8          0.8543   -0.4814   -0.3558 H         1 <0>         0.0371
     39 H9          3.8439   -5.7317    0.2246 H         1 <0>         0.0572
     40 H10         2.0971   -5.4831    0.1059 H         1 <0>         0.0572
     41 H11         2.4115   -3.8193   -3.0856 H         1 <0>         0.0572
     42 H12         1.2436   -4.3433   -1.8653 H         1 <0>         0.0572
     43 H13        -1.1770    0.4746    1.1165 H         1 <0>         0.0655
     44 H14         3.5754    1.6383    1.7649 H         1 <0>         0.0637
     45 H15        -1.8962    4.0531   -2.1949 H         1 <0>         0.0630
     46 H16         3.2390    5.5848   -1.1657 H         1 <0>         0.0629
     47 H17        -3.7149    2.6501   -1.5757 H         1 <0>         0.0636
     48 H18         5.4237    3.1674    1.5859 H         1 <0>         0.0618
     49 H19         5.2764    5.1675    0.1278 H         1 <0>         0.0618
     50 H20        -3.3768   -0.1106    0.8932 H         1 <0>         0.1582
     51 H21        -7.1350   -0.6417   -0.9632 H         1 <0>         0.0695
     52 H22        -7.5243    0.4933    0.3635 H         1 <0>         0.0695
     53 H23        -8.7010   -1.6865    0.6770 H         1 <0>         0.0262
     54 H24        -7.5154   -1.4120    1.9760 H         1 <0>         0.0262
     55 H25        -7.1324   -2.5281    0.6715 H         1 <0>         0.0262
@<TRIPOS>BOND
     1    1   18 1
     2    1   19 1
     3    2   13 1
     4    2   14 1
     5    3   15 2
     6    4   28 1
     7    4   29 1
     8    5   28 2
     9    6    9 1
    10    6   10 1
    11    6   11 1
    12    7   15 am
    13    7   16 1
    14    7   17 1
    15    8   23 1
    16    8   28 am
    17    8   50 1
    18    9   12 1
    19    9   31 1
    20    9   32 1
    21   10   13 1
    22   10   33 1
    23   10   34 1
    24   11   14 1
    25   11   35 1
    26   11   36 1
    27   12   15 1
    28   12   37 1
    29   12   38 1
    30   13   39 1
    31   13   40 1
    32   14   41 1
    33   14   42 1
    34   16   18 ar
    35   16   20 ar
    36   17   19 ar
    37   17   21 ar
    38   18   22 ar
    39   19   24 ar
    40   20   23 ar
    41   20   43 1
    42   21   26 ar
    43   21   44 1
    44   22   25 ar
    45   22   45 1
    46   23   25 ar
    47   24   27 ar
    48   24   46 1
    49   25   47 1
    50   26   27 ar
    51   26   48 1
    52   27   49 1
    53   29   30 1
    54   29   51 1
    55   29   52 1
    56   30   53 1
    57   30   54 1
    58   30   55 1
