@<TRIPOS>MOLECULE
DB00601
   44    46     0     0     0
SMALL
USER_CHARGES

@<TRIPOS>ATOM
      1 F1          2.8839   -2.3282   -0.8208 F         1 <0>        -0.2035
      2 O1         -3.4850   -0.8410   -1.2714 O.3       1 <0>        -0.4436
      3 O2          6.9070    0.1434    0.7261 O.3       1 <0>        -0.3767
      4 O3         -1.8138   -2.3559   -1.5076 O.2       1 <0>        -0.2259
      5 O4         -6.7378    1.6900    0.5292 O.2       1 <0>        -0.2761
      6 N1         -1.3975   -0.1485   -0.7643 N.am      1 <0>        -0.2336
      7 N2          4.1820   -0.0171    0.0573 N.pl3     1 <0>        -0.3233
      8 N3         -5.5430   -0.3037    0.6519 N.am      1 <0>        -0.3120
      9 C1         -3.6310    0.4482   -0.6594 C.3       1 <0>         0.1361
     10 C2         -2.2293    1.0193   -0.6488 C.3       1 <0>         0.0616
     11 C3          4.7606   -0.9410    1.0425 C.3       1 <0>         0.0358
     12 C4          4.9180    1.2381   -0.1293 C.3       1 <0>         0.0358
     13 C5          0.0111   -0.1162   -0.5568 C.ar      1 <0>         0.0424
     14 C6         -4.2157    0.2673    0.7347 C.3       1 <0>         0.0503
     15 C7          2.7987   -0.0515   -0.1473 C.ar      1 <0>         0.0656
     16 C8          6.2487   -1.1226    0.7660 C.3       1 <0>         0.0634
     17 C9          6.3980    0.9404   -0.3426 C.3       1 <0>         0.0634
     18 C10        -2.1655   -1.2269   -1.1961 C.2       1 <0>         0.4077
     19 C11         0.7773   -1.2575   -0.7927 C.ar      1 <0>        -0.0031
     20 C12         0.6244    1.0572   -0.1181 C.ar      1 <0>        -0.0382
     21 C13         2.1570   -1.2256   -0.5902 C.ar      1 <0>         0.1461
     22 C14         2.0042    1.0891    0.0847 C.ar      1 <0>        -0.0361
     23 C15        -6.6902    0.4629    0.5561 C.2       1 <0>         0.2100
     24 C16        -7.9317   -0.3823    0.4588 C.3       1 <0>         0.0121
     25 H1         -4.2955    1.0608   -1.2792 H         1 <0>         0.0766
     26 H2         -2.0568    1.6463   -1.5311 H         1 <0>         0.0507
     27 H3         -2.0343    1.5952    0.2602 H         1 <0>         0.0507
     28 H4          4.2770   -1.9231    1.0321 H         1 <0>         0.0486
     29 H5          4.6204   -0.5123    2.0426 H         1 <0>         0.0486
     30 H6          4.7988    1.8617    0.7654 H         1 <0>         0.0486
     31 H7          4.5426    1.7937   -0.9967 H         1 <0>         0.0486
     32 H8         -4.2703    1.2266    1.2602 H         1 <0>         0.0499
     33 H9         -3.6165   -0.4288    1.3316 H         1 <0>         0.0499
     34 H10         6.7072   -1.7146    1.5645 H         1 <0>         0.0575
     35 H11         6.4178   -1.6520   -0.1795 H         1 <0>         0.0575
     36 H12         6.5682    0.4240   -1.2952 H         1 <0>         0.0575
     37 H13         6.9673    1.8751   -0.3665 H         1 <0>         0.0575
     38 H14         0.3672   -2.1989   -1.1318 H         1 <0>         0.0665
     39 H15         0.0708    1.9708    0.0727 H         1 <0>         0.0637
     40 H16         2.4458    2.0179    0.4374 H         1 <0>         0.0637
     41 H17        -5.6212   -1.3167    0.6481 H         1 <0>         0.1488
     42 H18        -8.8169    0.2473    0.5852 H         1 <0>         0.0322
     43 H19        -7.9695   -0.8634   -0.5225 H         1 <0>         0.0322
     44 H20        -7.9324   -1.1474    1.2406 H         1 <0>         0.0322
@<TRIPOS>BOND
     1    1   21 1
     2    2    9 1
     3    2   18 1
     4    3   16 1
     5    3   17 1
     6    4   18 2
     7    5   23 2
     8    6   10 1
     9    6   13 1
    10    6   18 am
    11    7   11 1
    12    7   12 1
    13    7   15 1
    14    8   14 1
    15    8   23 am
    16    8   41 1
    17    9   10 1
    18    9   14 1
    19    9   25 1
    20   10   26 1
    21   10   27 1
    22   11   16 1
    23   11   28 1
    24   11   29 1
    25   12   17 1
    26   12   30 1
    27   12   31 1
    28   13   19 ar
    29   13   20 ar
    30   14   32 1
    31   14   33 1
    32   15   21 ar
    33   15   22 ar
    34   16   34 1
    35   16   35 1
    36   17   36 1
    37   17   37 1
    38   19   21 ar
    39   19   38 1
    40   20   22 ar
    41   20   39 1
    42   22   40 1
    43   23   24 1
    44   24   42 1
    45   24   43 1
    46   24   44 1
