@<TRIPOS>MOLECULE
DB00980
   40    42     0     0     0
SMALL
USER_CHARGES

@<TRIPOS>ATOM
      1 O1         -3.7109    2.7275    0.0154 O.3       1 <0>        -0.4914
      2 O2          3.5587    0.8721   -1.2685 O.2       1 <0>        -0.2758
      3 N1          2.5202   -1.0015   -0.3779 N.am      1 <0>        -0.3153
      4 C1         -0.4368   -0.9503   -0.1247 C.3       1 <0>        -0.0135
      5 C2         -1.7655   -0.2832    0.0884 C.ar      1 <0>        -0.0343
      6 C3         -0.8606   -2.4352   -0.1657 C.3       1 <0>        -0.0421
      7 C4         -2.0940   -2.5626    0.7369 C.3       1 <0>        -0.0269
      8 C5         -2.7081   -1.2068    0.5739 C.ar      1 <0>        -0.0434
      9 C6          0.3154   -0.5505   -1.3851 C.3       1 <0>        -0.0305
     10 C7         -2.1479    1.0288   -0.0668 C.ar      1 <0>         0.0012
     11 C8         -1.4157    2.2096   -0.5689 C.3       1 <0>         0.0104
     12 C9         -3.4565    1.3947    0.2302 C.ar      1 <0>         0.1241
     13 C10        -4.0175   -0.8368    0.8796 C.ar      1 <0>        -0.0548
     14 C11         1.6442   -1.2817   -1.5361 C.3       1 <0>         0.0121
     15 C12        -2.3955    3.3054   -0.1493 C.3       1 <0>         0.0937
     16 C13        -4.4048    0.4908    0.6916 C.ar      1 <0>        -0.0194
     17 C14         3.3915    0.0546   -0.3676 C.2       1 <0>         0.2128
     18 C15         4.1539    0.0969    0.9439 C.3       1 <0>         0.0211
     19 C16         5.1616    1.2307    0.9967 C.3       1 <0>        -0.0570
     20 H1          0.1667   -0.7636    0.7726 H         1 <0>         0.0350
     21 H2         -0.0577   -3.1077    0.1541 H         1 <0>         0.0274
     22 H3         -1.1398   -2.7261   -1.1886 H         1 <0>         0.0274
     23 H4         -1.8081   -2.7239    1.7814 H         1 <0>         0.0313
     24 H5         -2.7545   -3.3661    0.3993 H         1 <0>         0.0313
     25 H6          0.5206    0.5253   -1.3705 H         1 <0>         0.0286
     26 H7         -0.2999   -0.7334   -2.2750 H         1 <0>         0.0286
     27 H8         -0.4341    2.3540   -0.1104 H         1 <0>         0.0347
     28 H9         -1.3230    2.1664   -1.6588 H         1 <0>         0.0347
     29 H10        -4.7269   -1.5663    1.2567 H         1 <0>         0.0622
     30 H11         1.5128   -2.3663   -1.5901 H         1 <0>         0.0462
     31 H12         2.1520   -0.9531   -2.4493 H         1 <0>         0.0462
     32 H13        -2.1034    3.7497    0.8110 H         1 <0>         0.0700
     33 H14        -2.4431    4.1090   -0.8915 H         1 <0>         0.0700
     34 H15        -5.4180    0.8070    0.9152 H         1 <0>         0.0654
     35 H16         2.4575   -1.6220    0.4240 H         1 <0>         0.1487
     36 H17         3.4331    0.2097    1.7620 H         1 <0>         0.0356
     37 H18         4.6735   -0.8588    1.0784 H         1 <0>         0.0356
     38 H19         4.6676    2.2014    0.8834 H         1 <0>         0.0234
     39 H20         5.6908    1.2263    1.9545 H         1 <0>         0.0234
     40 H21         5.9023    1.1360    0.1957 H         1 <0>         0.0234
@<TRIPOS>BOND
     1    1   12 1
     2    1   15 1
     3    2   17 2
     4    3   14 1
     5    3   17 am
     6    3   35 1
     7    4    5 1
     8    4    6 1
     9    4    9 1
    10    4   20 1
    11    5    8 ar
    12    5   10 ar
    13    6    7 1
    14    6   21 1
    15    6   22 1
    16    7    8 1
    17    7   23 1
    18    7   24 1
    19    8   13 ar
    20    9   14 1
    21    9   25 1
    22    9   26 1
    23   10   11 1
    24   10   12 ar
    25   11   15 1
    26   11   27 1
    27   11   28 1
    28   12   16 ar
    29   13   16 ar
    30   13   29 1
    31   14   30 1
    32   14   31 1
    33   15   32 1
    34   15   33 1
    35   16   34 1
    36   17   18 1
    37   18   19 1
    38   18   36 1
    39   18   37 1
    40   19   38 1
    41   19   39 1
    42   19   40 1
