@<TRIPOS>MOLECULE
DB00857
   47    48     0     0     0
SMALL
USER_CHARGES

@<TRIPOS>ATOM
      1 N1          1.7173   -1.9280   -0.7972 N.3       1 <0>        -0.2975
      2 C1          1.7346   -1.1747    0.4577 C.3       1 <0>         0.0246
      3 C2          2.9534   -0.3056    0.5743 C.ar      1 <0>        -0.0257
      4 C3          2.9685    1.0159    0.1045 C.ar      1 <0>        -0.0135
      5 C4          4.1489    1.7839    0.2448 C.ar      1 <0>        -0.0176
      6 C5         -4.9759    0.4356    0.2472 C.3       1 <0>         0.0239
      7 C6          0.4922   -2.7130   -0.9071 C.3       1 <0>         0.0180
      8 C7          4.0799   -0.8661    1.1729 C.ar      1 <0>        -0.0567
      9 C8          1.8409    1.5938   -0.5009 C.ar      1 <0>        -0.0537
     10 C9          2.8934   -2.7945   -0.8863 C.3       1 <0>        -0.0121
     11 C10         5.2764    1.2057    0.8507 C.ar      1 <0>        -0.0540
     12 C11         5.2405   -0.1108    1.3113 C.ar      1 <0>        -0.0609
     13 C12         4.1669    3.1074   -0.2247 C.ar      1 <0>        -0.0540
     14 C13        -6.2214   -0.3794   -0.1283 C.3       1 <0>        -0.0491
     15 C14        -4.7978    1.5898   -0.7490 C.3       1 <0>        -0.0491
     16 C15        -5.1400    1.0012    1.6649 C.3       1 <0>        -0.0491
     17 C16        -0.7272   -1.8458   -0.8184 C.2       1 <0>        -0.0619
     18 C17         1.8766    2.9102   -0.9619 C.ar      1 <0>        -0.0612
     19 C18         3.0373    3.6653   -0.8242 C.ar      1 <0>        -0.0612
     20 C19        -3.7837   -0.4400    0.2025 C.1       1 <0>        -0.0916
     21 C20        -1.6701   -1.9888    0.1234 C.2       1 <0>        -0.0143
     22 C21        -2.8146   -1.1491    0.1648 C.1       1 <0>        -0.0738
     23 H1          1.7117   -1.8686    1.3126 H         1 <0>         0.0476
     24 H2          0.8447   -0.5581    0.6141 H         1 <0>         0.0476
     25 H3          0.4637   -3.2146   -1.8827 H         1 <0>         0.0470
     26 H4          0.4630   -3.5024   -0.1439 H         1 <0>         0.0470
     27 H5          4.0720   -1.8830    1.5559 H         1 <0>         0.0621
     28 H6          0.9124    1.0533   -0.6546 H         1 <0>         0.0624
     29 H7          2.8069   -3.4517   -1.7609 H         1 <0>         0.0391
     30 H8          3.0134   -3.4415   -0.0097 H         1 <0>         0.0391
     31 H9          3.8127   -2.2283   -1.0628 H         1 <0>         0.0391
     32 H10         6.1940    1.7778    0.9701 H         1 <0>         0.0624
     33 H11         6.1183   -0.5445    1.7815 H         1 <0>         0.0618
     34 H12         5.0633    3.7163   -0.1277 H         1 <0>         0.0624
     35 H13        -6.1327   -0.8021   -1.1362 H         1 <0>         0.0244
     36 H14        -7.1239    0.2417   -0.1047 H         1 <0>         0.0244
     37 H15        -6.3736   -1.2168    0.5633 H         1 <0>         0.0244
     38 H16        -3.9111    2.1894   -0.5105 H         1 <0>         0.0244
     39 H17        -4.6726    1.2173   -1.7728 H         1 <0>         0.0244
     40 H18        -5.6657    2.2588   -0.7404 H         1 <0>         0.0244
     41 H19        -5.2646    0.1992    2.4024 H         1 <0>         0.0244
     42 H20        -4.2622    1.5857    1.9652 H         1 <0>         0.0244
     43 H21        -6.0163    1.6558    1.7319 H         1 <0>         0.0244
     44 H22        -0.8359   -1.0741   -1.5786 H         1 <0>         0.0591
     45 H23         0.9993    3.3445   -1.4325 H         1 <0>         0.0618
     46 H24         3.0648    4.6897   -1.1843 H         1 <0>         0.0618
     47 H25        -1.5774   -2.7571    0.8842 H         1 <0>         0.0709
@<TRIPOS>BOND
     1    1    2 1
     2    1    7 1
     3    1   10 1
     4    2    3 1
     5    2   23 1
     6    2   24 1
     7    3    4 ar
     8    3    8 ar
     9    4    5 ar
    10    4    9 ar
    11    5   11 ar
    12    5   13 ar
    13    6   14 1
    14    6   15 1
    15    6   16 1
    16    6   20 1
    17    7   17 1
    18    7   25 1
    19    7   26 1
    20    8   12 ar
    21    8   27 1
    22    9   18 ar
    23    9   28 1
    24   10   29 1
    25   10   30 1
    26   10   31 1
    27   11   12 ar
    28   11   32 1
    29   12   33 1
    30   13   19 ar
    31   13   34 1
    32   14   35 1
    33   14   36 1
    34   14   37 1
    35   15   38 1
    36   15   39 1
    37   15   40 1
    38   16   41 1
    39   16   42 1
    40   16   43 1
    41   17   21 2
    42   17   44 1
    43   18   19 ar
    44   18   45 1
    45   19   46 1
    46   20   22 3
    47   21   22 1
    48   21   47 1
