@<TRIPOS>MOLECULE
DB00611
   53    57     0     0     0
SMALL
USER_CHARGES

@<TRIPOS>ATOM
      1 O1          1.6784    1.1213    2.1143 O.3       1 <0>        -0.3861
      2 O2          5.1325   -2.4175   -1.5330 O.3       1 <0>        -0.5068
      3 N1         -1.2559   -0.1999    0.2282 N.3       1 <0>        -0.2960
      4 C1          1.4854    0.7118   -0.2860 C.3       1 <0>         0.0275
      5 C2          0.7268    1.0442    1.0371 C.3       1 <0>         0.0914
      6 C3         -0.2672   -0.1073    1.3216 C.3       1 <0>         0.0440
      7 C4          0.4497    0.5149   -1.4331 C.3       1 <0>        -0.0278
      8 C5          2.4474    1.8868   -0.6292 C.3       1 <0>        -0.0406
      9 C6          0.0295    2.4221    0.9861 C.3       1 <0>        -0.0217
     10 C7          2.2364   -0.6307   -0.1294 C.ar      1 <0>        -0.0317
     11 C8         -0.6673   -0.4798   -1.0828 C.3       1 <0>         0.0002
     12 C9          0.5259   -1.4031    1.6170 C.3       1 <0>        -0.0090
     13 C10         1.7872    3.2685   -0.6159 C.3       1 <0>        -0.0521
     14 C11         1.0190    3.5421    0.6690 C.3       1 <0>        -0.0504
     15 C12         1.7506   -1.6205    0.7562 C.ar      1 <0>        -0.0418
     16 C13        -2.3623   -1.1056    0.5191 C.3       1 <0>         0.0021
     17 C14        -3.4655   -0.9546   -0.4789 C.3       1 <0>        -0.0282
     18 C15        -4.0943    0.4527   -0.5445 C.3       1 <0>        -0.0490
     19 C16        -4.8424   -1.4642   -0.0042 C.3       1 <0>        -0.0490
     20 C17         3.3736   -0.9316   -0.9014 C.ar      1 <0>        -0.0161
     21 C18        -5.4564   -0.2481   -0.7289 C.3       1 <0>        -0.0525
     22 C19         2.4266   -2.8468    0.8768 C.ar      1 <0>        -0.0548
     23 C20         4.0313   -2.1572   -0.7758 C.ar      1 <0>         0.1172
     24 C21         3.5612   -3.1126    0.1158 C.ar      1 <0>        -0.0199
     25 H1         -0.8115    0.1428    2.2431 H         1 <0>         0.0494
     26 H2          0.9511    0.1753   -2.3491 H         1 <0>         0.0287
     27 H3         -0.0235    1.4693   -1.6910 H         1 <0>         0.0287
     28 H4          2.8732    1.7482   -1.6309 H         1 <0>         0.0275
     29 H5          3.3035    1.8961    0.0576 H         1 <0>         0.0275
     30 H6         -0.4251    2.6393    1.9610 H         1 <0>         0.0294
     31 H7         -0.7812    2.4404    0.2497 H         1 <0>         0.0294
     32 H8         -1.4087   -0.3779   -1.8822 H         1 <0>         0.0427
     33 H9         -0.2936   -1.5092   -1.1416 H         1 <0>         0.0427
     34 H10        -0.1232   -2.2832    1.5579 H         1 <0>         0.0329
     35 H11         0.8722   -1.3563    2.6591 H         1 <0>         0.0329
     36 H12         1.1105    3.3663   -1.4726 H         1 <0>         0.0266
     37 H13         2.5571    4.0376   -0.7495 H         1 <0>         0.0266
     38 H14         1.7195    3.6856    1.4995 H         1 <0>         0.0266
     39 H15         0.4727    4.4876    0.5692 H         1 <0>         0.0266
     40 H16        -2.0328   -2.1510    0.5383 H         1 <0>         0.0429
     41 H17        -2.7423   -0.8820    1.5246 H         1 <0>         0.0429
     42 H18        -3.2345   -1.3664   -1.4712 H         1 <0>         0.0313
     43 H19         2.3855    1.7452    1.8918 H         1 <0>         0.2103
     44 H20        -3.7720    1.0800   -1.3798 H         1 <0>         0.0268
     45 H21        -4.0293    1.0353    0.3825 H         1 <0>         0.0268
     46 H22        -4.9990   -1.4462    1.0809 H         1 <0>         0.0268
     47 H23        -5.1450   -2.4424   -0.3874 H         1 <0>         0.0268
     48 H24         3.7615   -0.2185   -1.6232 H         1 <0>         0.0657
     49 H25        -6.3066    0.2242   -0.2309 H         1 <0>         0.0265
     50 H26        -5.7154   -0.4421   -1.7761 H         1 <0>         0.0265
     51 H27         2.0642   -3.6045    1.5677 H         1 <0>         0.0622
     52 H28         4.0639   -4.0697    0.2245 H         1 <0>         0.0654
     53 H29         5.4586   -3.3088   -1.3197 H         1 <0>         0.2921
@<TRIPOS>BOND
     1    1    5 1
     2    1   43 1
     3    2   23 1
     4    2   53 1
     5    3    6 1
     6    3   11 1
     7    3   16 1
     8    4    5 1
     9    4    7 1
    10    4    8 1
    11    4   10 1
    12    5    6 1
    13    5    9 1
    14    6   12 1
    15    6   25 1
    16    7   11 1
    17    7   26 1
    18    7   27 1
    19    8   13 1
    20    8   28 1
    21    8   29 1
    22    9   14 1
    23    9   30 1
    24    9   31 1
    25   10   15 ar
    26   10   20 ar
    27   11   32 1
    28   11   33 1
    29   12   15 1
    30   12   34 1
    31   12   35 1
    32   13   14 1
    33   13   36 1
    34   13   37 1
    35   14   38 1
    36   14   39 1
    37   15   22 ar
    38   16   17 1
    39   16   40 1
    40   16   41 1
    41   17   18 1
    42   17   19 1
    43   17   42 1
    44   18   21 1
    45   18   44 1
    46   18   45 1
    47   19   21 1
    48   19   46 1
    49   19   47 1
    50   20   23 ar
    51   20   48 1
    52   21   49 1
    53   21   50 1
    54   22   24 ar
    55   22   51 1
    56   23   24 ar
    57   24   52 1
