@<TRIPOS>MOLECULE
DB00838
   56    59     0     0     0
SMALL
USER_CHARGES

@<TRIPOS>ATOM
      1 Cl1        -1.4943   -0.1031    2.1442 Cl        1 <0>        -0.1139
      2 F1         -3.5856    3.1746   -0.2624 F         1 <0>        -0.2407
      3 O1         -0.6983   -2.2868   -1.1330 O.3       1 <0>        -0.3900
      4 O2          4.7196   -0.4149   -1.0815 O.2       1 <0>        -0.2946
      5 O3          5.5686   -2.5492    0.3123 O.3       1 <0>        -0.3875
      6 O4         -6.4300   -0.0281    2.1314 O.2       1 <0>        -0.2879
      7 C1          1.5628   -0.3363   -0.2385 C.3       1 <0>        -0.0167
      8 C2          0.7186    0.9164    0.0754 C.3       1 <0>        -0.0300
      9 C3         -0.7415    0.7955   -0.3911 C.3       1 <0>        -0.0121
     10 C4         -1.4506   -0.4331    0.3091 C.3       1 <0>         0.0866
     11 C5          2.9102    0.1323    0.3679 C.3       1 <0>         0.0281
     12 C6          1.5866    2.0638   -0.4372 C.3       1 <0>        -0.0461
     13 C7          0.9284   -1.5428    0.4804 C.3       1 <0>        -0.0188
     14 C8          3.0282    1.6161   -0.0818 C.3       1 <0>        -0.0335
     15 C9         -0.5793   -1.7347    0.1746 C.3       1 <0>         0.0761
     16 C10        -2.9705   -0.5509   -0.1699 C.3       1 <0>         0.0321
     17 C11        -1.5134    2.1103   -0.1819 C.3       1 <0>        -0.0130
     18 C12         1.7125   -0.6318   -1.7540 C.3       1 <0>        -0.0586
     19 C13        -2.9773    1.9974   -0.5936 C.3       1 <0>         0.1236
     20 C14        -3.6518    0.8111    0.0541 C.2       1 <0>        -0.0212
     21 C15         4.0859   -0.6904   -0.0637 C.2       1 <0>         0.1623
     22 C16         3.6459    2.4850    1.0096 C.3       1 <0>        -0.0617
     23 C17        -3.1370   -0.8948   -1.6724 C.3       1 <0>        -0.0505
     24 C18        -3.6935   -1.6681    0.5724 C.2       1 <0>        -0.0687
     25 C19        -4.7599    0.9660    0.7964 C.2       1 <0>        -0.0121
     26 C20         4.4409   -1.8675    0.8195 C.3       1 <0>         0.1025
     27 C21        -4.7973   -1.5120    1.3098 C.2       1 <0>        -0.0180
     28 C22        -5.4117   -0.1804    1.4647 C.2       1 <0>         0.1788
     29 H1          0.6969    1.0546    1.1668 H         1 <0>         0.0310
     30 H2         -0.7319    0.6184   -1.4716 H         1 <0>         0.0323
     31 H3          2.8631    0.0973    1.4653 H         1 <0>         0.0386
     32 H4          1.4799    2.1847   -1.5213 H         1 <0>         0.0271
     33 H5          1.3178    3.0182    0.0275 H         1 <0>         0.0271
     34 H6          1.0516   -1.4250    1.5643 H         1 <0>         0.0296
     35 H7          1.4664   -2.4580    0.2068 H         1 <0>         0.0296
     36 H8          3.6485    1.7305   -0.9788 H         1 <0>         0.0305
     37 H9         -0.9618   -2.5034    0.8573 H         1 <0>         0.0611
     38 H10        -1.0549    2.9141   -0.7711 H         1 <0>         0.0299
     39 H11        -1.4483    2.4464    0.8605 H         1 <0>         0.0299
     40 H12         2.2341   -1.5824   -1.9144 H         1 <0>         0.0235
     41 H13         0.7530   -0.7051   -2.2698 H         1 <0>         0.0235
     42 H14         2.2835    0.1393   -2.2807 H         1 <0>         0.0235
     43 H15        -3.0527    1.9108   -1.6827 H         1 <0>         0.0699
     44 H16         4.6532    2.1360    1.2588 H         1 <0>         0.0233
     45 H17         3.7219    3.5255    0.6766 H         1 <0>         0.0233
     46 H18         3.0431    2.4682    1.9238 H         1 <0>         0.0233
     47 H19        -2.9321   -1.9490   -1.8875 H         1 <0>         0.0242
     48 H20        -4.1691   -0.7185   -2.0050 H         1 <0>         0.0242
     49 H21        -2.4906   -0.2970   -2.3209 H         1 <0>         0.0242
     50 H22        -3.2908   -2.6746    0.4802 H         1 <0>         0.0582
     51 H23        -0.2101   -3.1276   -1.1469 H         1 <0>         0.2099
     52 H24        -5.2195    1.9372    0.9450 H         1 <0>         0.0656
     53 H25         3.6092   -2.5719    0.8526 H         1 <0>         0.0636
     54 H26         4.6650   -1.5163    1.8305 H         1 <0>         0.0636
     55 H27        -5.2683   -2.3532    1.8050 H         1 <0>         0.0653
     56 H28         6.3269   -1.9430    0.3689 H         1 <0>         0.2100
@<TRIPOS>BOND
     1    1   10 1
     2    2   19 1
     3    3   15 1
     4    3   51 1
     5    4   21 2
     6    5   26 1
     7    5   56 1
     8    6   28 2
     9    7    8 1
    10    7   11 1
    11    7   13 1
    12    7   18 1
    13    8    9 1
    14    8   12 1
    15    8   29 1
    16    9   10 1
    17    9   17 1
    18    9   30 1
    19   10   15 1
    20   10   16 1
    21   11   14 1
    22   11   21 1
    23   11   31 1
    24   12   14 1
    25   12   32 1
    26   12   33 1
    27   13   15 1
    28   13   34 1
    29   13   35 1
    30   14   22 1
    31   14   36 1
    32   15   37 1
    33   16   20 1
    34   16   23 1
    35   16   24 1
    36   17   19 1
    37   17   38 1
    38   17   39 1
    39   18   40 1
    40   18   41 1
    41   18   42 1
    42   19   20 1
    43   19   43 1
    44   20   25 2
    45   21   26 1
    46   22   44 1
    47   22   45 1
    48   22   46 1
    49   23   47 1
    50   23   48 1
    51   23   49 1
    52   24   27 2
    53   24   50 1
    54   25   28 1
    55   25   52 1
    56   26   53 1
    57   26   54 1
    58   27   28 1
    59   27   55 1
