@<TRIPOS>MOLECULE
DB00246
   49    53     0     0     0
SMALL
USER_CHARGES

@<TRIPOS>ATOM
      1 Cl1         3.9453   -3.1097   -1.0622 Cl        1 <0>        -0.0832
      2 S1         -6.7851   -1.6210    0.1460 S.3       1 <0>         0.0138
      3 O1          8.1717    2.6716    0.9205 O.2       1 <0>        -0.2751
      4 N1         -0.1956   -1.3877   -0.0380 N.3       1 <0>        -0.2990
      5 N2         -3.0295   -1.0638    0.1126 N.pl3     1 <0>        -0.3117
      6 N3         -5.1996   -2.0988    0.1532 N.2       1 <0>        -0.1944
      7 N4          7.3126    0.5652    0.3268 N.am      1 <0>        -0.2849
      8 C1         -0.8382   -0.1945   -0.6018 C.3       1 <0>         0.0147
      9 C2         -0.9319   -1.8372    1.1500 C.3       1 <0>         0.0147
     10 C3         -2.2835   -0.4893   -1.0111 C.3       1 <0>         0.0263
     11 C4         -2.3796   -2.1877    0.7983 C.3       1 <0>         0.0263
     12 C5          1.1998   -1.1081    0.2991 C.3       1 <0>         0.0030
     13 C6          1.9991   -0.7291   -0.9482 C.3       1 <0>        -0.0135
     14 C7         -4.4279   -1.0109    0.1166 C.2       1 <0>         0.1382
     15 C8          3.4458   -0.4598   -0.6178 C.ar      1 <0>        -0.0275
     16 C9         -5.0937    0.2623    0.0803 C.ar      1 <0>         0.0306
     17 C10         5.1222    1.0938    0.0173 C.ar      1 <0>        -0.0171
     18 C11         3.7973    0.8466   -0.2848 C.ar      1 <0>        -0.0517
     19 C12         6.0606    0.0655   -0.0137 C.ar      1 <0>         0.0384
     20 C13         4.3926   -1.4928   -0.6481 C.ar      1 <0>         0.0459
     21 C14         5.7940    2.3722    0.4060 C.3       1 <0>         0.0512
     22 C15        -6.4771    0.0709    0.0926 C.ar      1 <0>         0.0412
     23 C16         5.7298   -1.2336   -0.3414 C.ar      1 <0>        -0.0216
     24 C17         7.2517    1.9372    0.5952 C.2       1 <0>         0.2216
     25 C18        -4.5985    1.5842    0.0372 C.ar      1 <0>        -0.0502
     26 C19        -7.3819    1.1435    0.0636 C.ar      1 <0>        -0.0459
     27 C20        -5.4913    2.6604    0.0084 C.ar      1 <0>        -0.0610
     28 C21        -6.8645    2.4404    0.0215 C.ar      1 <0>        -0.0606
     29 H1         -0.3488    0.1444   -1.5183 H         1 <0>         0.0442
     30 H2         -0.8196    0.6378    0.1144 H         1 <0>         0.0442
     31 H3         -0.9210   -1.0630    1.9290 H         1 <0>         0.0442
     32 H4         -0.4569   -2.7315    1.5717 H         1 <0>         0.0442
     33 H5         -2.7343    0.4207   -1.4141 H         1 <0>         0.0477
     34 H6         -2.2860   -1.2159   -1.8353 H         1 <0>         0.0477
     35 H7         -2.4053   -3.0754    0.1531 H         1 <0>         0.0477
     36 H8         -2.9109   -2.4343    1.7261 H         1 <0>         0.0477
     37 H9          1.2705   -0.3107    1.0516 H         1 <0>         0.0430
     38 H10         1.6481   -2.0030    0.7492 H         1 <0>         0.0430
     39 H11         1.6210    0.1888   -1.4116 H         1 <0>         0.0326
     40 H12         1.9016   -1.4925   -1.7288 H         1 <0>         0.0326
     41 H13         3.0667    1.6479   -0.2570 H         1 <0>         0.0624
     42 H14         5.7347    3.1148   -0.3937 H         1 <0>         0.0408
     43 H15         5.4024    2.7594    1.3500 H         1 <0>         0.0408
     44 H16         6.4823   -2.0149   -0.3572 H         1 <0>         0.0651
     45 H17         8.1515   -0.0010    0.3713 H         1 <0>         0.1548
     46 H18        -3.5338    1.7976    0.0627 H         1 <0>         0.0625
     47 H19        -8.4545    0.9773    0.0740 H         1 <0>         0.0629
     48 H20        -5.1072    3.6765   -0.0160 H         1 <0>         0.0618
     49 H21        -7.5451    3.2874    0.0007 H         1 <0>         0.0618
@<TRIPOS>BOND
     1    1   20 1
     2    2    6 1
     3    2   22 1
     4    3   24 2
     5    4    8 1
     6    4    9 1
     7    4   12 1
     8    5   10 1
     9    5   11 1
    10    5   14 1
    11    6   14 2
    12    7   19 1
    13    7   24 am
    14    7   45 1
    15    8   10 1
    16    8   29 1
    17    8   30 1
    18    9   11 1
    19    9   31 1
    20    9   32 1
    21   10   33 1
    22   10   34 1
    23   11   35 1
    24   11   36 1
    25   12   13 1
    26   12   37 1
    27   12   38 1
    28   13   15 1
    29   13   39 1
    30   13   40 1
    31   14   16 1
    32   15   18 ar
    33   15   20 ar
    34   16   22 ar
    35   16   25 ar
    36   17   18 ar
    37   17   19 ar
    38   17   21 1
    39   18   41 1
    40   19   23 ar
    41   20   23 ar
    42   21   24 1
    43   21   42 1
    44   21   43 1
    45   22   26 ar
    46   23   44 1
    47   25   27 ar
    48   25   46 1
    49   26   28 ar
    50   26   47 1
    51   27   28 ar
    52   27   48 1
    53   28   49 1
