@<TRIPOS>MOLECULE
DB00649
   28    29     0     0     0
SMALL
USER_CHARGES

@<TRIPOS>ATOM
      1 O1         -1.4152   -1.1451   -1.0735 O.3       1 <0>        -0.3434
      2 O2         -3.6338    1.5666   -0.0587 O.3       1 <0>        -0.3921
      3 O3          1.8586   -3.1304   -0.6087 O.2       1 <0>        -0.2464
      4 O4          4.3318    0.7249   -0.1972 O.2       1 <0>        -0.2674
      5 N1          0.7443   -1.1407   -0.1168 N.am      1 <0>        -0.2701
      6 N2          3.0799   -1.2004   -0.4000 N.am      1 <0>        -0.2746
      7 C1         -0.5789   -1.7525   -0.0738 C.3       1 <0>         0.1592
      8 C2         -2.5419   -0.5287   -0.4123 C.3       1 <0>         0.1027
      9 C3         -1.2294   -1.4839    1.2297 C.2       1 <0>        -0.0363
     10 C4         -2.3482   -0.7886    1.0390 C.2       1 <0>        -0.0531
     11 C5         -2.5611    0.9520   -0.7532 C.3       1 <0>         0.0741
     12 C6          0.8329    0.2157    0.1198 C.2       1 <0>         0.0202
     13 C7          1.8783   -1.9174   -0.3902 C.2       1 <0>         0.3316
     14 C8          1.9844    0.8987    0.1097 C.2       1 <0>         0.0302
     15 C9          3.2426    0.1578   -0.1724 C.2       1 <0>         0.2568
     16 C10         2.0767    2.3686    0.3663 C.3       1 <0>        -0.0332
     17 H1         -0.5271   -2.8270   -0.2752 H         1 <0>         0.0887
     18 H2         -3.4602   -1.0175   -0.7570 H         1 <0>         0.0664
     19 H3         -0.8634   -1.8154    2.1900 H         1 <0>         0.0614
     20 H4         -3.0200   -0.4746    1.8238 H         1 <0>         0.0597
     21 H5         -2.7225    1.0775   -1.8300 H         1 <0>         0.0586
     22 H6         -1.6451    1.4888   -0.5138 H         1 <0>         0.0586
     23 H7         -0.0708    0.7421    0.3715 H         1 <0>         0.0816
     24 H8          3.9229   -1.7332   -0.5953 H         1 <0>         0.1734
     25 H9          1.0944    2.8135    0.5579 H         1 <0>         0.0280
     26 H10         2.5103    2.8812   -0.4984 H         1 <0>         0.0280
     27 H11         2.7069    2.5653    1.2398 H         1 <0>         0.0280
     28 H12        -3.6462    2.5028   -0.3211 H         1 <0>         0.2095
@<TRIPOS>BOND
     1    1    7 1
     2    1    8 1
     3    2   11 1
     4    2   28 1
     5    3   13 2
     6    4   15 2
     7    5    7 1
     8    5   12 1
     9    5   13 am
    10    6   13 am
    11    6   15 am
    12    6   24 1
    13    7    9 1
    14    7   17 1
    15    8   10 1
    16    8   11 1
    17    8   18 1
    18    9   10 2
    19    9   19 1
    20   10   20 1
    21   11   21 1
    22   11   22 1
    23   12   14 2
    24   12   23 1
    25   14   15 1
    26   14   16 1
    27   16   25 1
    28   16   26 1
    29   16   27 1
