@<TRIPOS>MOLECULE
DB00399
   26    26     0     0     0
SMALL
USER_CHARGES

@<TRIPOS>ATOM
      1 P1         -0.3376   -1.7291   -0.5141 P.3       1 <0>         0.3728
      2 P2         -2.4524    0.6372   -0.0989 P.3       1 <0>         0.3728
      3 O1         -0.3998    0.5533   -1.6010 O.3       1 <0>        -0.3659
      4 O2         -1.5514   -2.2840   -1.4274 O.3       1 <0>        -0.3217
      5 O3         -0.6557   -2.3717    0.9338 O.3       1 <0>        -0.3217
      6 O4         -2.3211    2.2433   -0.2175 O.3       1 <0>        -0.3217
      7 O5         -2.7516    0.4164    1.4748 O.3       1 <0>        -0.3217
      8 O6          1.0335   -2.0087   -1.0541 O.2       1 <0>        -0.2551
      9 O7         -3.4496    0.0036   -1.0229 O.2       1 <0>        -0.2551
     10 N1          1.6549    0.4933    0.4388 N.pl3     1 <0>        -0.3328
     11 N2          3.6377   -0.4715    0.5591 N.2       1 <0>        -0.2441
     12 C1         -0.7343    0.0444   -0.2994 C.3       1 <0>         0.2849
     13 C2          0.2401    0.7362    0.6809 C.3       1 <0>         0.0760
     14 C3          2.4665    1.2412   -0.3533 C.cat     1 <0>         0.0241
     15 C4          2.3891   -0.5212    0.9675 C.cat     1 <0>         0.0960
     16 C5          3.6927    0.6252   -0.2640 C.2       1 <0>         0.0454
     17 H1          0.1083    1.8245    0.6622 H         1 <0>         0.0533
     18 H2          0.0315    0.4043    1.7045 H         1 <0>         0.0533
     19 H3         -0.5165    1.5186   -1.5850 H         1 <0>         0.2117
     20 H4          2.1257    2.1131   -0.8940 H         1 <0>         0.0825
     21 H5          1.9787   -1.2588    1.6437 H         1 <0>         0.1029
     22 H6         -1.5411   -3.2231   -1.7104 H         1 <0>         0.2198
     23 H7         -0.4835   -3.3265    1.0780 H         1 <0>         0.2198
     24 H8         -3.1336    2.7910   -0.1736 H         1 <0>         0.2198
     25 H9         -3.6424    0.6332    1.8235 H         1 <0>         0.2198
     26 H10         4.6121    0.9155   -0.7514 H         1 <0>         0.0845
@<TRIPOS>BOND
     1    1    4 1
     2    1    5 1
     3    1    8 2
     4    1   12 1
     5    2    6 1
     6    2    7 1
     7    2    9 2
     8    2   12 1
     9    3   12 1
    10    3   19 1
    11    4   22 1
    12    5   23 1
    13    6   24 1
    14    7   25 1
    15   10   13 1
    16   10   14 1
    17   10   15 2
    18   11   15 1
    19   11   16 2
    20   12   13 1
    21   13   17 1
    22   13   18 1
    23   14   16 1
    24   14   20 1
    25   15   21 1
    26   16   26 1
