@<TRIPOS>MOLECULE
DB00240
   57    60     0     0     0
SMALL
USER_CHARGES

@<TRIPOS>ATOM
      1 Cl1        -1.4845    2.7277    1.4623 Cl        1 <0>        -0.1211
      2 O1          2.9854   -0.0075    1.7668 O.3       1 <0>        -0.3802
      3 O2         -0.7022   -2.3094   -1.1453 O.3       1 <0>        -0.3914
      4 O3          4.9926   -0.2694   -0.7540 O.2       1 <0>        -0.2919
      5 O4          5.3746   -2.6747    0.5379 O.3       1 <0>        -0.3874
      6 O5         -6.3456    0.0684    2.2435 O.2       1 <0>        -0.2879
      7 C1          1.5419   -0.3758   -0.2188 C.3       1 <0>         0.0094
      8 C2          0.7032    0.8884    0.0716 C.3       1 <0>        -0.0276
      9 C3         -0.7512    0.7987   -0.4268 C.3       1 <0>        -0.0148
     10 C4         -1.4624   -0.4255    0.2589 C.3       1 <0>         0.0020
     11 C5          2.9138    0.0960    0.3498 C.3       1 <0>         0.1340
     12 C6          1.5812    2.0308   -0.4386 C.3       1 <0>        -0.0437
     13 C7          0.8705   -1.5474    0.5271 C.3       1 <0>        -0.0178
     14 C8          3.0345    1.5655   -0.1553 C.3       1 <0>        -0.0071
     15 C9         -0.6150   -1.7365    0.1515 C.3       1 <0>         0.0600
     16 C10        -2.9805   -0.5556   -0.1753 C.3       1 <0>         0.0132
     17 C11        -1.5354    2.1228   -0.2324 C.3       1 <0>         0.0411
     18 C12         1.6776   -0.6919   -1.7339 C.3       1 <0>        -0.0562
     19 C13        -2.9947    1.9770   -0.6661 C.3       1 <0>        -0.0139
     20 C14        -3.6494    0.8073    0.0290 C.2       1 <0>        -0.0546
     21 C15         4.0783   -0.7428   -0.0806 C.2       1 <0>         0.1904
     22 C16         3.7635    2.5135    0.7926 C.3       1 <0>        -0.0594
     23 C17        -3.1825   -0.9602   -1.6541 C.3       1 <0>        -0.0520
     24 C18        -3.6644   -1.6329    0.6548 C.2       1 <0>        -0.0701
     25 C19        -4.7272    1.0013    0.8055 C.2       1 <0>        -0.0148
     26 C20         4.0601   -2.1914    0.3587 C.3       1 <0>         0.1052
     27 C21        -4.7342   -1.4456    1.4338 C.2       1 <0>        -0.0180
     28 C22        -5.3515   -0.1121    1.5485 C.2       1 <0>         0.1787
     29 H1          0.6451    1.0083    1.1629 H         1 <0>         0.0310
     30 H2         -0.7384    0.6276   -1.5077 H         1 <0>         0.0322
     31 H3         -1.4718   -0.1988    1.3378 H         1 <0>         0.0340
     32 H4          1.4395    2.1779   -1.5161 H         1 <0>         0.0272
     33 H5          1.3427    2.9783    0.0551 H         1 <0>         0.0272
     34 H6          0.9214   -1.3847    1.6106 H         1 <0>         0.0297
     35 H7          1.3971   -2.4835    0.3176 H         1 <0>         0.0297
     36 H8          3.5631    1.6080   -1.1165 H         1 <0>         0.0330
     37 H9         -1.0212   -2.4845    0.8409 H         1 <0>         0.0596
     38 H10        -1.0722    2.9111   -0.8357 H         1 <0>         0.0471
     39 H11         2.0058   -1.7249   -1.8921 H         1 <0>         0.0236
     40 H12         0.7623   -0.5459   -2.3051 H         1 <0>         0.0236
     41 H13         2.4186   -0.0533   -2.2267 H         1 <0>         0.0236
     42 H14        -3.0430    1.8258   -1.7512 H         1 <0>         0.0325
     43 H15        -3.5371    2.9122   -0.4759 H         1 <0>         0.0325
     44 H16         3.2231    2.6462    1.7351 H         1 <0>         0.0233
     45 H17         4.7678    2.1419    1.0194 H         1 <0>         0.0233
     46 H18         3.8682    3.5026    0.3339 H         1 <0>         0.0233
     47 H19        -4.2219   -0.7922   -1.9673 H         1 <0>         0.0241
     48 H20        -2.5518   -0.3867   -2.3399 H         1 <0>         0.0241
     49 H21        -2.9908   -2.0241   -1.8305 H         1 <0>         0.0241
     50 H22         2.4009    0.6565    2.1659 H         1 <0>         0.2108
     51 H23        -3.2705   -2.6447    0.5897 H         1 <0>         0.0582
     52 H24        -0.7609   -1.6038   -1.8050 H         1 <0>         0.2098
     53 H25        -5.1695    1.9834    0.9340 H         1 <0>         0.0655
     54 H26         3.5789   -2.7920   -0.4165 H         1 <0>         0.0637
     55 H27         3.5306   -2.3284    1.3035 H         1 <0>         0.0637
     56 H28        -5.1794   -2.2643    1.9870 H         1 <0>         0.0653
     57 H29         5.7668   -2.1868    1.2822 H         1 <0>         0.2100
@<TRIPOS>BOND
     1    1   17 1
     2    2   11 1
     3    2   50 1
     4    3   15 1
     5    3   52 1
     6    4   21 2
     7    5   26 1
     8    5   57 1
     9    6   28 2
    10    7    8 1
    11    7   11 1
    12    7   13 1
    13    7   18 1
    14    8    9 1
    15    8   12 1
    16    8   29 1
    17    9   10 1
    18    9   17 1
    19    9   30 1
    20   10   15 1
    21   10   16 1
    22   10   31 1
    23   11   14 1
    24   11   21 1
    25   12   14 1
    26   12   32 1
    27   12   33 1
    28   13   15 1
    29   13   34 1
    30   13   35 1
    31   14   22 1
    32   14   36 1
    33   15   37 1
    34   16   20 1
    35   16   23 1
    36   16   24 1
    37   17   19 1
    38   17   38 1
    39   18   39 1
    40   18   40 1
    41   18   41 1
    42   19   20 1
    43   19   42 1
    44   19   43 1
    45   20   25 2
    46   21   26 1
    47   22   44 1
    48   22   45 1
    49   22   46 1
    50   23   47 1
    51   23   48 1
    52   23   49 1
    53   24   27 2
    54   24   51 1
    55   25   28 1
    56   25   53 1
    57   26   54 1
    58   26   55 1
    59   27   28 1
    60   27   56 1
