@<TRIPOS>MOLECULE
DB00821
   31    33     0     0     0
SMALL
USER_CHARGES

@<TRIPOS>ATOM
      1 Cl1         6.2753    1.6243    0.1647 Cl        1 <0>        -0.0835
      2 O1         -5.1735   -0.4027    1.1271 O.3       1 <0>        -0.4802
      3 O2         -3.1422   -0.8302    2.0366 O.2       1 <0>        -0.2503
      4 N1          1.3728   -1.5417   -0.0736 N.pl3     1 <0>        -0.3541
      5 C1          1.0489    0.6624    0.0213 C.2       1 <0>         0.0075
      6 C2          0.3999   -0.5707   -0.0472 C.2       1 <0>         0.0478
      7 C3          2.4564    0.4041    0.0359 C.ar      1 <0>         0.0088
      8 C4         -1.7479    0.4843   -0.0390 C.2       1 <0>        -0.0320
      9 C5          2.6264   -0.9794   -0.0242 C.ar      1 <0>         0.0476
     10 C6         -3.2381    0.4013   -0.0707 C.3       1 <0>         0.0785
     11 C7         -0.9941   -0.6918   -0.0789 C.2       1 <0>        -0.0338
     12 C8          0.2659    1.8353    0.0602 C.2       1 <0>        -0.0517
     13 C9         -1.1293    1.7303    0.0294 C.2       1 <0>        -0.0571
     14 C10         3.6038    1.2228    0.0951 C.ar      1 <0>        -0.0336
     15 C11         3.8870   -1.5875   -0.0280 C.ar      1 <0>        -0.0364
     16 C12        -3.7995   -0.2536   -1.3484 C.3       1 <0>        -0.0482
     17 C13         4.8710    0.6290    0.0921 C.ar      1 <0>         0.0417
     18 C14        -3.8159   -0.3366    1.1414 C.2       1 <0>         0.3119
     19 C15         5.0082   -0.7557    0.0316 C.ar      1 <0>        -0.0414
     20 H1         -3.6494    1.4187   -0.0136 H         1 <0>         0.0459
     21 H2         -1.4596   -1.6708   -0.1335 H         1 <0>         0.0641
     22 H3          1.1911   -2.5346   -0.1224 H         1 <0>         0.1659
     23 H4          0.7338    2.8142    0.1136 H         1 <0>         0.0624
     24 H5         -1.7192    2.6431    0.0598 H         1 <0>         0.0621
     25 H6          3.4973    2.3034    0.1425 H         1 <0>         0.0639
     26 H7          3.9943   -2.6661   -0.0752 H         1 <0>         0.0639
     27 H8         -3.3777    0.2180   -2.2429 H         1 <0>         0.0241
     28 H9         -3.5687   -1.3241   -1.3894 H         1 <0>         0.0241
     29 H10        -4.8888   -0.1513   -1.4016 H         1 <0>         0.0241
     30 H11         5.9957   -1.2121    0.0297 H         1 <0>         0.0633
     31 H12        -5.5239   -0.8824    1.9077 H         1 <0>         0.2951
@<TRIPOS>BOND
     1    1   17 1
     2    2   18 1
     3    2   31 1
     4    3   18 2
     5    4    6 1
     6    4    9 2
     7    4   22 1
     8    5    6 1
     9    5    7 2
    10    5   12 2
    11    6   11 2
    12    7    9 ar
    13    7   14 ar
    14    8   10 1
    15    8   11 1
    16    8   13 2
    17    9   15 ar
    18   10   16 1
    19   10   18 1
    20   10   20 1
    21   11   21 1
    22   12   13 1
    23   12   23 1
    24   13   24 1
    25   14   17 ar
    26   14   25 1
    27   15   19 ar
    28   15   26 1
    29   16   27 1
    30   16   28 1
    31   16   29 1
    32   17   19 ar
    33   19   30 1
