@<TRIPOS>MOLECULE
DB00912
   69    71     0     0     0
SMALL
USER_CHARGES

@<TRIPOS>ATOM
      1 O1          0.2697   -0.7780   -1.5993 O.2       1 <0>        -0.2754
      2 O2         -5.2786    1.1718    0.0493 O.3       1 <0>        -0.4914
      3 O3         -6.3722   -2.3648   -1.6952 O.3       1 <0>        -0.4770
      4 O4         -7.2810   -0.3928   -1.0233 O.2       1 <0>        -0.2450
      5 N1          2.0117   -1.7354    1.0879 N.pl3     1 <0>        -0.3296
      6 N2          0.6623    1.3477   -0.7544 N.am      1 <0>        -0.3081
      7 C1          3.4608   -1.8602    1.2995 C.3       1 <0>         0.0122
      8 C2          1.3159   -2.9383    0.6164 C.3       1 <0>         0.0122
      9 C3          4.1401   -2.4110    0.0477 C.3       1 <0>        -0.0372
     10 C4          1.9944   -3.4963   -0.6337 C.3       1 <0>        -0.0372
     11 C5          3.4875   -3.7079   -0.4154 C.3       1 <0>        -0.0502
     12 C6          1.7321    0.9779    0.1496 C.3       1 <0>         0.0503
     13 C7          1.3224   -0.8062    1.8765 C.ar      1 <0>         0.0347
     14 C8          1.1620    0.5080    1.4716 C.ar      1 <0>        -0.0062
     15 C9          2.7257    2.1501    0.2803 C.3       1 <0>        -0.0279
     16 C10         3.3859    2.6065   -1.0378 C.3       1 <0>        -0.0447
     17 C11         0.7873   -1.2136    3.0985 C.ar      1 <0>        -0.0403
     18 C12         0.4819    1.4273    2.2532 C.ar      1 <0>        -0.0550
     19 C13         4.1164    1.4670   -1.7496 C.3       1 <0>        -0.0626
     20 C14         4.3666    3.7480   -0.7543 C.3       1 <0>        -0.0626
     21 C15         0.0996   -0.3005    3.8979 C.ar      1 <0>        -0.0600
     22 C16        -0.0532    1.0199    3.4752 C.ar      1 <0>        -0.0613
     23 C17         0.0172    0.4234   -1.5598 C.2       1 <0>         0.2178
     24 C18        -1.0613    1.0803   -2.3996 C.3       1 <0>         0.0492
     25 C19        -2.4384    0.5298   -2.1390 C.ar      1 <0>        -0.0351
     26 C20        -3.2309    1.1081   -1.1576 C.ar      1 <0>        -0.0155
     27 C21        -2.8950   -0.5482   -2.8841 C.ar      1 <0>        -0.0571
     28 C22        -4.5066    0.5982   -0.9163 C.ar      1 <0>         0.1347
     29 C23        -4.1707   -1.0582   -2.6427 C.ar      1 <0>        -0.0439
     30 C24        -4.9763   -0.4852   -1.6588 C.ar      1 <0>         0.1003
     31 C25        -6.3047   -1.0335   -1.4229 C.2       1 <0>         0.3404
     32 C26        -4.7630    1.1665    1.3787 C.3       1 <0>         0.0868
     33 C27        -5.9188    1.1377    2.3558 C.3       1 <0>        -0.0307
     34 H1          3.6491   -2.5218    2.1542 H         1 <0>         0.0464
     35 H2          3.9052   -0.8857    1.5369 H         1 <0>         0.0464
     36 H3          1.3142   -3.6977    1.4081 H         1 <0>         0.0464
     37 H4          0.2699   -2.7102    0.3785 H         1 <0>         0.0464
     38 H5          5.2038   -2.5803    0.2485 H         1 <0>         0.0280
     39 H6          4.0792   -1.6692   -0.7581 H         1 <0>         0.0280
     40 H7          1.8542   -2.8060   -1.4732 H         1 <0>         0.0280
     41 H8          1.5221   -4.4434   -0.9172 H         1 <0>         0.0280
     42 H9          3.9555   -4.0495   -1.3452 H         1 <0>         0.0266
     43 H10         3.6458   -4.4921    0.3347 H         1 <0>         0.0266
     44 H11         2.2659    0.1556   -0.3313 H         1 <0>         0.0549
     45 H12         2.2237    3.0217    0.7208 H         1 <0>         0.0289
     46 H13         3.5118    1.8620    0.9920 H         1 <0>         0.0289
     47 H14         2.6126    2.9932   -1.7127 H         1 <0>         0.0296
     48 H15         0.9016   -2.2370    3.4469 H         1 <0>         0.0636
     49 H16         0.3336    2.3086   -0.7305 H         1 <0>         0.1493
     50 H17         0.3418    2.4569    1.9382 H         1 <0>         0.0621
     51 H18         4.8284    0.9720   -1.0806 H         1 <0>         0.0232
     52 H19         4.6731    1.8435   -2.6147 H         1 <0>         0.0232
     53 H20         3.4170    0.7147   -2.1259 H         1 <0>         0.0232
     54 H21         4.8121    4.1184   -1.6836 H         1 <0>         0.0232
     55 H22         5.1789    3.4210   -0.0961 H         1 <0>         0.0232
     56 H23         3.8562    4.5886   -0.2723 H         1 <0>         0.0232
     57 H24        -0.3166   -0.6174    4.8496 H         1 <0>         0.0618
     58 H25        -0.5911    1.7301    4.0965 H         1 <0>         0.0618
     59 H26        -1.0719    2.1687   -2.2624 H         1 <0>         0.0407
     60 H27        -0.7890    0.9289   -3.4523 H         1 <0>         0.0407
     61 H28        -2.8615    1.9558   -0.5863 H         1 <0>         0.0657
     62 H29        -2.2756   -1.0009   -3.6532 H         1 <0>         0.0621
     63 H30        -4.5128   -1.8949   -3.2463 H         1 <0>         0.0627
     64 H31        -4.1679    2.0731    1.5335 H         1 <0>         0.0694
     65 H32        -4.1242    0.2909    1.5497 H         1 <0>         0.0694
     66 H33        -6.5310    0.2431    2.2014 H         1 <0>         0.0262
     67 H34        -6.5740    2.0018    2.2040 H         1 <0>         0.0262
     68 H35        -5.5584    1.1450    3.3883 H         1 <0>         0.0262
     69 H36        -7.2702   -2.7253   -1.5344 H         1 <0>         0.2954
@<TRIPOS>BOND
     1    1   23 2
     2    2   28 1
     3    2   32 1
     4    3   31 1
     5    3   69 1
     6    4   31 2
     7    5    7 1
     8    5    8 1
     9    5   13 1
    10    6   12 1
    11    6   23 am
    12    6   49 1
    13    7    9 1
    14    7   34 1
    15    7   35 1
    16    8   10 1
    17    8   36 1
    18    8   37 1
    19    9   11 1
    20    9   38 1
    21    9   39 1
    22   10   11 1
    23   10   40 1
    24   10   41 1
    25   11   42 1
    26   11   43 1
    27   12   14 1
    28   12   15 1
    29   12   44 1
    30   13   14 ar
    31   13   17 ar
    32   14   18 ar
    33   15   16 1
    34   15   45 1
    35   15   46 1
    36   16   19 1
    37   16   20 1
    38   16   47 1
    39   17   21 ar
    40   17   48 1
    41   18   22 ar
    42   18   50 1
    43   19   51 1
    44   19   52 1
    45   19   53 1
    46   20   54 1
    47   20   55 1
    48   20   56 1
    49   21   22 ar
    50   21   57 1
    51   22   58 1
    52   23   24 1
    53   24   25 1
    54   24   59 1
    55   24   60 1
    56   25   26 ar
    57   25   27 ar
    58   26   28 ar
    59   26   61 1
    60   27   29 ar
    61   27   62 1
    62   28   30 ar
    63   29   30 ar
    64   29   63 1
    65   30   31 1
    66   32   33 1
    67   32   64 1
    68   32   65 1
    69   33   66 1
    70   33   67 1
    71   33   68 1
