@<TRIPOS>MOLECULE
DB00262
   21    20     0     0     0
SMALL
USER_CHARGES

@<TRIPOS>ATOM
      1 Cl1        -4.4393    1.5610   -0.1579 Cl        1 <0>        -0.1237
      2 Cl2         3.3034   -0.1868   -2.0615 Cl        1 <0>        -0.1238
      3 O1          0.1579    1.0540    1.2134 O.2       1 <0>        -0.2508
      4 O2         -2.1543   -2.4099   -0.7436 O.2       1 <0>        -0.1256
      5 N1         -1.0670   -0.6594    0.2461 N.am      1 <0>        -0.1401
      6 N2          1.2962   -0.7049    0.2667 N.am      1 <0>        -0.2967
      7 N3         -1.0336   -1.9637   -0.4759 N.2       1 <0>         0.0527
      8 C1         -2.3634   -0.0648    0.5467 C.3       1 <0>         0.0557
      9 C2          2.6076   -0.1831    0.5776 C.3       1 <0>         0.0265
     10 C3          0.1303   -0.0280    0.6176 C.2       1 <0>         0.3242
     11 C4         -2.8575    0.8492   -0.5619 C.3       1 <0>         0.0405
     12 C5          3.1597    0.7035   -0.5257 C.3       1 <0>         0.0382
     13 H1         -3.0925   -0.8517    0.7728 H         1 <0>         0.0498
     14 H2         -2.2591    0.5212    1.4687 H         1 <0>         0.0498
     15 H3          2.5594    0.3815    1.5151 H         1 <0>         0.0474
     16 H4          3.2649   -1.0438    0.7438 H         1 <0>         0.0474
     17 H5          1.2561   -1.5842   -0.2353 H         1 <0>         0.1503
     18 H6         -2.9727    0.3024   -1.5028 H         1 <0>         0.0446
     19 H7         -2.1573    1.6723   -0.7358 H         1 <0>         0.0446
     20 H8          4.1547    1.0725   -0.2610 H         1 <0>         0.0445
     21 H9          2.5065    1.5626   -0.7071 H         1 <0>         0.0445
@<TRIPOS>BOND
     1    1   11 1
     2    2   12 1
     3    3   10 2
     4    4    7 2
     5    5    7 1
     6    5    8 1
     7    5   10 am
     8    6    9 1
     9    6   10 am
    10    6   17 1
    11    8   11 1
    12    8   13 1
    13    8   14 1
    14    9   12 1
    15    9   15 1
    16    9   16 1
    17   11   18 1
    18   11   19 1
    19   12   20 1
    20   12   21 1
