@<TRIPOS>MOLECULE
DB00809
   41    42     0     0     0
SMALL
USER_CHARGES

@<TRIPOS>ATOM
      1 O1          0.6291   -2.1649    1.5291 O.2       1 <0>        -0.2748
      2 O2          1.9119   -3.5218   -0.8660 O.3       1 <0>        -0.3939
      3 N1         -0.9534   -1.0991    0.2218 N.am      1 <0>        -0.2969
      4 N2         -3.1361    3.4169    0.1252 N.ar      1 <0>        -0.2632
      5 C1          1.4599   -1.1614   -0.4929 C.3       1 <0>         0.0838
      6 C2          0.3499   -1.5179    0.5135 C.2       1 <0>         0.2255
      7 C3         -1.3646   -0.3341   -0.9526 C.3       1 <0>         0.0398
      8 C4          2.1364    0.1529   -0.1391 C.ar      1 <0>        -0.0334
      9 C5         -2.0425   -1.4920    1.1089 C.3       1 <0>         0.0122
     10 C6          2.5248   -2.2707   -0.5704 C.3       1 <0>         0.0593
     11 C7         -1.9868    0.9836   -0.5741 C.ar      1 <0>        -0.0273
     12 C8          2.6578    0.9311   -1.1536 C.ar      1 <0>        -0.0578
     13 C9          2.2100    0.5321    1.1868 C.ar      1 <0>        -0.0578
     14 C10        -2.6600   -2.8071    0.6804 C.3       1 <0>        -0.0493
     15 C11        -1.3868    1.7698    0.3928 C.ar      1 <0>        -0.0389
     16 C12        -3.1516    1.3932   -1.1974 C.ar      1 <0>        -0.0389
     17 C13         3.2786    2.1375   -0.8292 C.ar      1 <0>        -0.0615
     18 C14         2.8306    1.7385    1.5110 C.ar      1 <0>        -0.0615
     19 C15         3.3649    2.5410    0.5029 C.ar      1 <0>        -0.0617
     20 C16        -1.9987    2.9730    0.7056 C.ar      1 <0>         0.0279
     21 C17        -3.6845    2.6132   -0.8135 C.ar      1 <0>         0.0279
     22 H1          1.0336   -1.1214   -1.4972 H         1 <0>         0.0466
     23 H2         -2.0714   -0.9564   -1.5140 H         1 <0>         0.0514
     24 H3         -0.5455   -0.1042   -1.6317 H         1 <0>         0.0514
     25 H4         -1.6501   -1.6056    2.1260 H         1 <0>         0.0462
     26 H5         -2.8120   -0.7164    1.1600 H         1 <0>         0.0462
     27 H6          3.2591   -2.0550   -1.3549 H         1 <0>         0.0568
     28 H7          3.0625   -2.3757    0.3791 H         1 <0>         0.0568
     29 H8          2.5948    0.6238   -2.1932 H         1 <0>         0.0621
     30 H9          1.8256   -0.0681    2.0028 H         1 <0>         0.0621
     31 H10        -3.1079   -2.7329   -0.3155 H         1 <0>         0.0245
     32 H11        -1.9109   -3.6054    0.6504 H         1 <0>         0.0245
     33 H12        -3.4455   -3.1047    1.3823 H         1 <0>         0.0245
     34 H13        -0.4770    1.4826    0.9018 H         1 <0>         0.0636
     35 H14        -3.6397    0.7950   -1.9585 H         1 <0>         0.0636
     36 H15         3.6947    2.7624   -1.6140 H         1 <0>         0.0618
     37 H16         2.9015    2.0517    2.5487 H         1 <0>         0.0618
     38 H17         3.8487    3.4800    0.7557 H         1 <0>         0.0618
     39 H18         2.6223   -4.1844   -0.9059 H         1 <0>         0.2094
     40 H19        -1.5752    3.6327    1.4559 H         1 <0>         0.0829
     41 H20        -4.5963    2.9882   -1.2666 H         1 <0>         0.0829
@<TRIPOS>BOND
     1    1    6 2
     2    2   10 1
     3    2   39 1
     4    3    6 am
     5    3    7 1
     6    3    9 1
     7    4   20 ar
     8    4   21 ar
     9    5    6 1
    10    5    8 1
    11    5   10 1
    12    5   22 1
    13    7   11 1
    14    7   23 1
    15    7   24 1
    16    8   12 ar
    17    8   13 ar
    18    9   14 1
    19    9   25 1
    20    9   26 1
    21   10   27 1
    22   10   28 1
    23   11   15 ar
    24   11   16 ar
    25   12   17 ar
    26   12   29 1
    27   13   18 ar
    28   13   30 1
    29   14   31 1
    30   14   32 1
    31   14   33 1
    32   15   20 ar
    33   15   34 1
    34   16   21 ar
    35   16   35 1
    36   17   19 ar
    37   17   36 1
    38   18   19 ar
    39   18   37 1
    40   19   38 1
    41   20   40 1
    42   21   41 1
