@<TRIPOS>MOLECULE
DB00316
   20    20     0     0     0
SMALL
USER_CHARGES

@<TRIPOS>ATOM
      1 O1          4.1946   -0.1069   -0.0011 O.3       1 <0>        -0.5068
      2 O2         -2.1003   -1.8083    0.0027 O.2       1 <0>        -0.2758
      3 N1         -1.3264    0.4189    0.0001 N.am      1 <0>        -0.2857
      4 C1          0.0625    0.2866    0.0004 C.ar      1 <0>         0.0336
      5 C2          0.6422   -0.9820    0.0001 C.ar      1 <0>        -0.0370
      6 C3          0.8714    1.4230    0.0005 C.ar      1 <0>        -0.0370
      7 C4          2.0308   -1.1142    0.0003 C.ar      1 <0>        -0.0184
      8 C5          2.2600    1.2906    0.0005 C.ar      1 <0>        -0.0184
      9 C6          2.8396    0.0221    0.0004 C.ar      1 <0>         0.1170
     10 C7         -2.2921   -0.5965   -0.0003 C.2       1 <0>         0.2141
     11 C8         -3.6924   -0.0364   -0.0005 C.3       1 <0>         0.0125
     12 H1          0.0826   -1.9069   -0.0003 H         1 <0>         0.0637
     13 H2          0.4334    2.4179    0.0005 H         1 <0>         0.0637
     14 H3         -1.6714    1.3765   -0.0002 H         1 <0>         0.1548
     15 H4          2.4714   -2.1079   -0.0001 H         1 <0>         0.0655
     16 H5          2.8849    2.1796    0.0003 H         1 <0>         0.0655
     17 H6         -3.8545    0.5532    0.9061 H         1 <0>         0.0323
     18 H7         -4.4186   -0.8535   -0.0281 H         1 <0>         0.0323
     19 H8         -3.8386    0.5971   -0.8799 H         1 <0>         0.0323
     20 H9          4.4210   -1.0529   -0.0013 H         1 <0>         0.2921
@<TRIPOS>BOND
     1    1    9 1
     2    1   20 1
     3    2   10 2
     4    3    4 1
     5    3   10 am
     6    3   14 1
     7    4    5 ar
     8    4    6 ar
     9    5    7 ar
    10    5   12 1
    11    6    8 ar
    12    6   13 1
    13    7    9 ar
    14    7   15 1
    15    8    9 ar
    16    8   16 1
    17   10   11 1
    18   11   17 1
    19   11   18 1
    20   11   19 1
