@<TRIPOS>MOLECULE
DB00115
 93 100 0 0 0
SMALL
GASTEIGER

@<TRIPOS>ATOM
      1 C           2.3831   -1.7304    0.0000 C.3     1  UNL1        0.0000
      2 C           2.2652   -0.9138    0.0000 C.3     1  UNL1        0.0000
      3 C           1.4992   -0.6076    0.0000 C.3     1  UNL1        0.0000
      4 N           0.8509   -1.1180    0.0000 N.am    1  UNL1        0.0000
      5 C           0.0849   -0.8118    0.0000 C.2     1  UNL1        0.0000
      6 O          -0.0329    0.0047    0.0000 O.2     1  UNL1        0.0000
      7 C          -0.5632   -1.3221    0.0000 C.3     1  UNL1        0.0000
      8 C          -1.3293   -1.0159    0.0000 C.3     1  UNL1        0.0000
      9 C          -1.4472   -0.1994    0.0000 C.3     1  UNL1        0.0000
     10 C          -0.6228   -0.1675    0.0000 C.3     1  UNL1        0.0000
     11 C          -1.3927    0.6237    0.0000 C.3     1  UNL1        0.0000
     12 C          -0.6947    1.0636    0.0000 C.3     1  UNL1        0.0000
     13 C           0.0351    0.6789    0.0000 C.2     1  UNL1        0.0000
     14 N           0.7331    1.1187    0.0000 N.am    1  UNL1        0.0000
     15 O           0.3201   -0.0952    0.0000 O.2     1  UNL1        0.0000
     16 C          -2.1588    0.9300    0.0000 C.3     1  UNL1        0.0000
     17 N          -2.6867    0.2961    0.0000 N.2     1  UNL1        0.0000
     18 C          -2.2469   -0.4019    0.0000 C.2     1  UNL1        0.0000
     19 C          -2.7933   -1.3143    0.0000 C.2     1  UNL1        0.0000
     20 C          -2.2343   -1.9211    0.0000 C.3     1  UNL1        0.0000
     21 C          -3.5334   -1.6787    0.0000 C.2     1  UNL1        0.0000
     22 N          -4.1087   -1.0874    0.0000 N.2     1  UNL1        0.0000
     23 C          -4.8489   -1.4518    0.0000 C.2     1  UNL1        0.0000
     24 C          -5.6992   -0.8131    0.0000 C.2     1  UNL1        0.0000
     25 C          -5.9842   -0.0388    0.0000 C.2     1  UNL1        0.0000
     26 N          -5.3360    0.4713    0.0000 N.2     1  UNL1        0.0000
     27 C          -5.6211    1.2456    0.0000 C.2     1  UNL1        0.0000
     28 C          -4.8969    2.0244    0.0000 C.2     1  UNL1        0.0000
     29 C          -5.3175    2.7342    0.0000 C.3     1  UNL1        0.0000
     30 C          -4.0972    2.2270    0.0000 C.2     1  UNL1        0.0000
     31 C          -3.5693    2.8610    0.0000 C.3     1  UNL1        0.0000
     32 C          -3.7718    3.6607    0.0000 C.3     1  UNL1        0.0000
     33 C          -4.5657    3.8852    0.0000 C.3     1  UNL1        0.0000
     34 C          -4.7683    4.6850    0.0000 C.2     1  UNL1        0.0000
     35 N          -4.1769    5.2603    0.0000 N.am    1  UNL1        0.0000
     36 O          -5.5621    4.9094    0.0000 O.2     1  UNL1        0.0000
     37 C          -2.8032    2.5547    0.0000 C.3     1  UNL1        0.0000
     38 C          -1.9902    2.4145    0.0000 C.3     1  UNL1        0.0000
     39 C          -2.5787    3.3487    0.0000 C.3     1  UNL1        0.0000
     40 C          -1.7790    3.5513    0.0000 C.2     1  UNL1        0.0000
     41 N          -1.5545    4.3452    0.0000 N.am    1  UNL1        0.0000
     42 O          -1.2037    2.9600    0.0000 O.2     1  UNL1        0.0000
     43 C          -2.8577    1.7316    0.0000 C.3     1  UNL1        0.0000
     44 C          -2.0760    1.9954    0.0000 C.3     1  UNL1        0.0000
     45 N          -3.6574    1.5291    0.0000 N.pl3   1  UNL1        0.0000
     46 CO         -3.9636    0.7630    0.0000 Co.oh   1  UNL1        0.0000
     47 C          -3.4533    0.1147    0.0000 C.1     1  UNL1        0.0000
     48 N          -2.9429   -0.5334    0.0000 N.1     1  UNL1        0.0000
     49 C          -6.4455    1.2138    0.0000 C.3     1  UNL1        0.0000
     50 C          -6.3910    2.0370    0.0000 C.3     1  UNL1        0.0000
     51 C          -7.2585    1.3540    0.0000 C.3     1  UNL1        0.0000
     52 C          -7.5435    2.1282    0.0000 C.2     1  UNL1        0.0000
     53 N          -8.3565    2.2684    0.0000 N.am    1  UNL1        0.0000
     54 O          -7.0156    2.7621    0.0000 O.2     1  UNL1        0.0000
     55 C          -6.6699    0.4199    0.0000 C.3     1  UNL1        0.0000
     56 C          -7.4441    0.1347    0.0000 C.3     1  UNL1        0.0000
     57 C          -7.5843   -0.6781    0.0000 C.3     1  UNL1        0.0000
     58 C          -8.3585   -0.9632    0.0000 C.2     1  UNL1        0.0000
     59 N          -8.4988   -1.7762    0.0000 N.am    1  UNL1        0.0000
     60 O          -8.9925   -0.4353    0.0000 O.2     1  UNL1        0.0000
     61 C          -4.7310   -2.2684    0.0000 C.3     1  UNL1        0.0000
     62 C          -4.7855   -3.0916    0.0000 C.3     1  UNL1        0.0000
     63 C          -5.5554   -2.3001    0.0000 C.3     1  UNL1        0.0000
     64 C          -3.9180   -2.4086    0.0000 C.3     1  UNL1        0.0000
     65 C          -3.5536   -3.1488    0.0000 C.3     1  UNL1        0.0000
     66 C          -4.0124   -3.8344    0.0000 C.3     1  UNL1        0.0000
     67 C          -3.6480   -4.5746    0.0000 C.2     1  UNL1        0.0000
     68 N          -2.8248   -4.6291    0.0000 N.am    1  UNL1        0.0000
     69 O          -4.1068   -5.2603    0.0000 O.2     1  UNL1        0.0000
     70 O           2.9134   -0.4035    0.0000 O.3     1  UNL1        0.0000
     71 P           3.6795   -0.7097    0.0000 P.3     1  UNL1        0.0000
     72 O           3.9857    0.0563    0.0000 O.co2   1  UNL1       -0.5000
     73 O           3.3733   -1.4758    0.0000 O.2     1  UNL1       -0.5000
     74 O           4.4456   -1.0159    0.0000 O.3     1  UNL1        0.0000
     75 C           5.0938   -0.5056    0.0000 C.3     1  UNL1        0.0000
     76 C           5.8877   -0.7300    0.0000 C.3     1  UNL1        0.0000
     77 C           6.1727   -1.5042    0.0000 C.3     1  UNL1        0.0000
     78 O           6.9857   -1.6444    0.0000 O.3     1  UNL1        0.0000
     79 O           6.3465   -0.0443    0.0000 O.3     1  UNL1        0.0000
     80 C           5.8361    0.6038    0.0000 C.3     1  UNL1        0.0000
     81 C           5.0619    0.3187    0.0000 C.3     1  UNL1        0.0000
     82 O           4.3763    0.7776    0.0000 O.3     1  UNL1        0.0000
     83 N           6.0606    1.3978    0.0000 N.ar    1  UNL1        0.0000
     84 C           5.5502    2.0460    0.0000 C.ar    1  UNL1        0.0000
     85 N           6.0090    2.7316    0.0000 N.ar    1  UNL1        0.0000
     86 C           6.8029    2.5071    0.0000 C.ar    1  UNL1        0.0000
     87 C           7.5009    2.9469    0.0000 C.ar    1  UNL1        0.0000
     88 C           8.2308    2.5623    0.0000 C.ar    1  UNL1        0.0000
     89 C           8.9288    3.0022    0.0000 C.3     1  UNL1        0.0000
     90 C           8.2627    1.7380    0.0000 C.ar    1  UNL1        0.0000
     91 C           8.9925    1.3534    0.0000 C.3     1  UNL1        0.0000
     92 C           7.5646    1.2982    0.0000 C.ar    1  UNL1        0.0000
     93 C           6.8348    1.6827    0.0000 C.ar    1  UNL1        0.0000
@<TRIPOS>BOND
     1     2     1    1
     2     2     3    1
     3     3     4    1
     4     4     5   am
     5     5     6    2
     6     5     7    1
     7     7     8    1
     8     9     8    1
     9     9    10    1
    10     9    11    1
    11    11    12    1
    12    12    13    1
    13    13    14   am
    14    13    15    2
    15    11    16    1
    16    16    17    1
    17    17    18    2
    18     9    18    1
    19    18    19    1
    20    19    20    1
    21    19    21    2
    22    21    22    1
    23    22    23    2
    24    23    24    1
    25    24    25    2
    26    25    26    1
    27    26    27    2
    28    27    28    1
    29    28    29    1
    30    28    30    2
    31    30    31    1
    32    31    32    1
    33    32    33    1
    34    33    34    1
    35    34    35   am
    36    34    36    2
    37    31    37    1
    38    37    38    1
    39    37    39    1
    40    39    40    1
    41    40    41   am
    42    40    42    2
    43    37    43    1
    44    16    43    1
    45    43    44    1
    46    43    45    1
    47    30    45    1
    48    45    46    1
    49    46    47    1
    50    47    48    3
    51    27    49    1
    52    49    50    1
    53    49    51    1
    54    51    52    1
    55    52    53   am
    56    52    54    2
    57    49    55    1
    58    25    55    1
    59    55    56    1
    60    56    57    1
    61    57    58    1
    62    58    59   am
    63    58    60    2
    64    23    61    1
    65    61    62    1
    66    61    63    1
    67    61    64    1
    68    21    64    1
    69    64    65    1
    70    65    66    1
    71    66    67    1
    72    67    68   am
    73    67    69    2
    74     2    70    1
    75    70    71    1
    76    71    72    1
    77    71    73    2
    78    71    74    1
    79    75    74    1
    80    75    76    1
    81    76    77    1
    82    77    78    1
    83    76    79    1
    84    79    80    1
    85    80    81    1
    86    75    81    1
    87    81    82    1
    88    80    83    1
    89    83    84   ar
    90    84    85   ar
    91    85    86   ar
    92    86    87   ar
    93    87    88   ar
    94    88    89    1
    95    88    90   ar
    96    90    91    1
    97    90    92   ar
    98    92    93   ar
    99    83    93   ar
   100    86    93   ar
