@<TRIPOS>MOLECULE
DB00477
   40    42     0     0     0
SMALL
USER_CHARGES

@<TRIPOS>ATOM
      1 Cl1        -5.1260   -2.4397   -1.0664 Cl        1 <0>        -0.0835
      2 S1         -1.7637    2.2394    1.4637 S.3       1 <0>        -0.0857
      3 N1         -0.7193    0.2520   -0.6864 N.pl3     1 <0>        -0.2982
      4 N2          2.2898   -1.1588    0.5381 N.3       1 <0>        -0.3083
      5 C1         -0.0465   -0.8690   -1.3553 C.3       1 <0>         0.0185
      6 C2          0.1618   -2.0313   -0.3850 C.3       1 <0>        -0.0240
      7 C3          0.9685   -1.6785    0.8685 C.3       1 <0>        -0.0003
      8 C4         -2.0569    0.0509   -0.2614 C.ar      1 <0>         0.0493
      9 C5         -0.0040    1.4714   -0.5772 C.ar      1 <0>         0.0479
     10 C6         -2.6515    0.9013    0.6919 C.ar      1 <0>         0.0342
     11 C7         -0.3954    2.4627    0.3443 C.ar      1 <0>         0.0341
     12 C8         -2.8638   -0.9787   -0.7931 C.ar      1 <0>        -0.0209
     13 C9          1.1025    1.7659   -1.4035 C.ar      1 <0>        -0.0393
     14 C10        -3.9811    0.7022    1.1042 C.ar      1 <0>        -0.0448
     15 C11         0.3123    3.6740    0.4426 C.ar      1 <0>        -0.0462
     16 C12         3.0815   -2.1711   -0.1633 C.3       1 <0>        -0.0130
     17 C13         2.9875   -0.7170    1.7469 C.3       1 <0>        -0.0130
     18 C14        -4.1863   -1.1691   -0.3835 C.ar      1 <0>         0.0428
     19 C15         1.7994    2.9733   -1.3052 C.ar      1 <0>        -0.0599
     20 C16        -4.7446   -0.3297    0.5684 C.ar      1 <0>        -0.0422
     21 C17         1.4057    3.9272   -0.3789 C.ar      1 <0>        -0.0606
     22 H1         -0.6067   -1.1917   -2.2407 H         1 <0>         0.0468
     23 H2          0.9417   -0.6464   -1.7565 H         1 <0>         0.0468
     24 H3          0.6228   -2.8669   -0.9248 H         1 <0>         0.0293
     25 H4         -0.7982   -2.4346   -0.0447 H         1 <0>         0.0293
     26 H5          1.0459   -2.5718    1.5029 H         1 <0>         0.0427
     27 H6          0.4098   -0.9375    1.4533 H         1 <0>         0.0427
     28 H7         -2.4864   -1.6519   -1.5581 H         1 <0>         0.0651
     29 H8          1.4393    1.1090   -2.1982 H         1 <0>         0.0636
     30 H9         -4.4371    1.3516    1.8489 H         1 <0>         0.0630
     31 H10         0.0173    4.4354    1.1619 H         1 <0>         0.0629
     32 H11         4.1051   -1.8098   -0.3206 H         1 <0>         0.0391
     33 H12         3.1425   -3.1130    0.3940 H         1 <0>         0.0391
     34 H13         2.6939   -2.3752   -1.1657 H         1 <0>         0.0391
     35 H14         2.4173    0.0696    2.2540 H         1 <0>         0.0391
     36 H15         3.9603   -0.2815    1.4930 H         1 <0>         0.0391
     37 H16         3.1496   -1.5380    2.4546 H         1 <0>         0.0391
     38 H17         2.6403    3.1694   -1.9642 H         1 <0>         0.0618
     39 H18        -5.7706   -0.4617    0.9007 H         1 <0>         0.0632
     40 H19         1.9428    4.8672   -0.2993 H         1 <0>         0.0618
@<TRIPOS>BOND
     1    1   18 1
     2    2   10 1
     3    2   11 1
     4    3    5 1
     5    3    8 1
     6    3    9 1
     7    4    7 1
     8    4   16 1
     9    4   17 1
    10    5    6 1
    11    5   22 1
    12    5   23 1
    13    6    7 1
    14    6   24 1
    15    6   25 1
    16    7   26 1
    17    7   27 1
    18    8   10 ar
    19    8   12 ar
    20    9   11 ar
    21    9   13 ar
    22   10   14 ar
    23   11   15 ar
    24   12   18 ar
    25   12   28 1
    26   13   19 ar
    27   13   29 1
    28   14   20 ar
    29   14   30 1
    30   15   21 ar
    31   15   31 1
    32   16   32 1
    33   16   33 1
    34   16   34 1
    35   17   35 1
    36   17   36 1
    37   17   37 1
    38   18   20 ar
    39   19   21 ar
    40   19   38 1
    41   20   39 1
    42   21   40 1
