@<TRIPOS>MOLECULE
DB00660
   31    32     0     0     0
SMALL
USER_CHARGES

@<TRIPOS>ATOM
      1 O1          2.8559   -1.5210    0.2702 O.3       1 <0>        -0.4421
      2 O2          0.6225   -0.5678   -1.1980 O.3       1 <0>        -0.4882
      3 O3          3.5388   -1.7078    2.4504 O.2       1 <0>        -0.2265
      4 N1          4.2840    0.0095    1.0691 N.am      1 <0>        -0.2775
      5 C1          2.9662   -0.4987   -0.7403 C.3       1 <0>         0.1538
      6 C2          4.1574    0.3342   -0.3136 C.3       1 <0>         0.0551
      7 C3          1.6669    0.2934   -0.7794 C.3       1 <0>         0.1279
      8 C4          3.5616   -1.1212    1.3776 C.2       1 <0>         0.4008
      9 C5         -0.6355   -0.2986   -0.7198 C.ar      1 <0>         0.1212
     10 C6         -0.9915    1.0113   -0.4240 C.ar      1 <0>        -0.0170
     11 C7         -1.5375   -1.3396   -0.5376 C.ar      1 <0>        -0.0170
     12 C8         -2.2700    1.2849    0.0620 C.ar      1 <0>        -0.0467
     13 C9         -2.8161   -1.0658   -0.0517 C.ar      1 <0>        -0.0467
     14 C10        -3.1822    0.2464    0.2481 C.ar      1 <0>        -0.0557
     15 C11        -2.6613    2.6879    0.3825 C.3       1 <0>        -0.0396
     16 C12        -3.7914   -2.1762    0.1479 C.3       1 <0>        -0.0396
     17 H1          3.1419   -0.9869   -1.7051 H         1 <0>         0.0785
     18 H2          5.0744    0.0061   -0.8131 H         1 <0>         0.0501
     19 H3          4.0352    1.4114   -0.4521 H         1 <0>         0.0501
     20 H4          1.4772    0.6889    0.2274 H         1 <0>         0.0734
     21 H5          1.7541    1.1230   -1.4903 H         1 <0>         0.0734
     22 H6          4.9078    0.4804    1.7167 H         1 <0>         0.1521
     23 H7         -0.3131    1.8435   -0.5889 H         1 <0>         0.0657
     24 H8         -1.2440   -2.3587   -0.7753 H         1 <0>         0.0657
     25 H9         -4.1805    0.4592    0.6235 H         1 <0>         0.0623
     26 H10        -3.4514    2.7179    1.1407 H         1 <0>         0.0278
     27 H11        -1.8115    3.2504    0.7840 H         1 <0>         0.0278
     28 H12        -3.0239    3.1920   -0.5188 H         1 <0>         0.0278
     29 H13        -4.4579   -1.9685    0.9920 H         1 <0>         0.0278
     30 H14        -3.2791   -3.1187    0.3694 H         1 <0>         0.0278
     31 H15        -4.3971   -2.3106   -0.7536 H         1 <0>         0.0278
@<TRIPOS>BOND
     1    1    5 1
     2    1    8 1
     3    2    7 1
     4    2    9 1
     5    3    8 2
     6    4    6 1
     7    4    8 am
     8    4   22 1
     9    5    6 1
    10    5    7 1
    11    5   17 1
    12    6   18 1
    13    6   19 1
    14    7   20 1
    15    7   21 1
    16    9   10 ar
    17    9   11 ar
    18   10   12 ar
    19   10   23 1
    20   11   13 ar
    21   11   24 1
    22   12   14 ar
    23   12   15 1
    24   13   14 ar
    25   13   16 1
    26   14   25 1
    27   15   26 1
    28   15   27 1
    29   15   28 1
    30   16   29 1
    31   16   30 1
    32   16   31 1
