@<TRIPOS>MOLECULE
DB00447
   40    42     0     0     0
SMALL
USER_CHARGES

@<TRIPOS>ATOM
      1 Cl1         4.1947   -2.9596    0.5369 Cl        1 <0>        -0.0861
      2 O1          2.7693    2.3398   -1.6889 O.2       1 <0>        -0.2731
      3 O2          5.6502    0.0417   -0.7178 O.3       1 <0>        -0.4762
      4 O3         -1.3251    1.9075    1.7259 O.2       1 <0>        -0.2737
      5 O4          4.3061   -0.7563   -2.3872 O.2       1 <0>        -0.2437
      6 N1          2.6729    0.6572   -0.0456 N.am      1 <0>        -0.2577
      7 N2         -0.1456    1.8138   -0.2683 N.am      1 <0>        -0.3008
      8 N3         -3.6703    2.2443    0.3054 N.3       1 <0>        -0.3163
      9 C1          1.7814    0.8292    1.0964 C.3       1 <0>         0.0586
     10 C2          1.1802    2.0254    0.3060 C.3       1 <0>         0.1190
     11 C3          1.0459   -0.4743    1.3364 C.3       1 <0>        -0.0268
     12 C4          2.3530    1.7951   -0.6933 C.2       1 <0>         0.2425
     13 C5          2.1032   -1.5655    1.5948 C.3       1 <0>        -0.0132
     14 C6          3.4632   -0.4365   -0.1878 C.2       1 <0>         0.1357
     15 C7          3.2503   -1.5099    0.6004 C.2       1 <0>         0.0469
     16 C8         -1.3095    1.7716    0.5036 C.2       1 <0>         0.2350
     17 C9          4.4913   -0.4134   -1.2355 C.2       1 <0>         0.3525
     18 C10        -2.5646    1.5166   -0.3239 C.3       1 <0>         0.1079
     19 C11        -2.8426    0.0323   -0.4398 C.ar      1 <0>        -0.0219
     20 C12        -2.2956   -0.6757   -1.4951 C.ar      1 <0>        -0.0566
     21 C13        -3.6374   -0.5815    0.5118 C.ar      1 <0>        -0.0566
     22 C14        -2.5517   -2.0428   -1.6023 C.ar      1 <0>        -0.0614
     23 C15        -3.8936   -1.9484    0.4047 C.ar      1 <0>        -0.0614
     24 C16        -3.3508   -2.6791   -0.6523 C.ar      1 <0>        -0.0617
     25 H1          2.3272    1.1623    1.9911 H         1 <0>         0.0528
     26 H2          1.2521    2.9870    0.8263 H         1 <0>         0.0614
     27 H3          0.4406   -0.7617    0.4677 H         1 <0>         0.0287
     28 H4          0.3710   -0.3941    2.1950 H         1 <0>         0.0287
     29 H5          1.6065   -2.5424    1.5597 H         1 <0>         0.0323
     30 H6          2.5158   -1.4423    2.6042 H         1 <0>         0.0323
     31 H7         -0.2401    1.6857   -1.2730 H         1 <0>         0.1496
     32 H8         -2.4325    1.9423   -1.3266 H         1 <0>         0.0605
     33 H9         -4.5078    2.1534   -0.2694 H         1 <0>         0.1192
     34 H10        -3.4543    3.2407    0.3246 H         1 <0>         0.1192
     35 H11         6.3665    0.0729   -1.3875 H         1 <0>         0.2954
     36 H12        -1.6717   -0.1899   -2.2396 H         1 <0>         0.0621
     37 H13        -4.0589   -0.0447    1.3560 H         1 <0>         0.0621
     38 H14        -2.1284   -2.6118   -2.4247 H         1 <0>         0.0618
     39 H15        -4.5119   -2.4452    1.1466 H         1 <0>         0.0618
     40 H16        -3.5489   -3.7437   -0.7348 H         1 <0>         0.0618
@<TRIPOS>BOND
     1    1   15 1
     2    2   12 2
     3    3   17 1
     4    3   35 1
     5    4   16 2
     6    5   17 2
     7    6    9 1
     8    6   12 am
     9    6   14 1
    10    7   10 1
    11    7   16 am
    12    7   31 1
    13    8   18 1
    14    8   33 1
    15    8   34 1
    16    9   10 1
    17    9   11 1
    18    9   25 1
    19   10   12 1
    20   10   26 1
    21   11   13 1
    22   11   27 1
    23   11   28 1
    24   13   15 1
    25   13   29 1
    26   13   30 1
    27   14   15 2
    28   14   17 1
    29   16   18 1
    30   18   19 1
    31   18   32 1
    32   19   20 ar
    33   19   21 ar
    34   20   22 ar
    35   20   36 1
    36   21   23 ar
    37   21   37 1
    38   22   24 ar
    39   22   38 1
    40   23   24 ar
    41   23   39 1
    42   24   40 1
