@<TRIPOS>MOLECULE
DB00335
   41    41     0     0     0
SMALL
USER_CHARGES

@<TRIPOS>ATOM
      1 O1          0.5258   -1.8659    0.6258 O.3       1 <0>        -0.4894
      2 O2          3.0078   -3.0884    0.9029 O.3       1 <0>        -0.3872
      3 O3         -5.5222   -1.0918    0.8265 O.2       1 <0>        -0.2757
      4 N1          3.0240    0.2800   -0.6349 N.3       1 <0>        -0.3112
      5 N2         -6.7919    0.6063   -0.0605 N.am      1 <0>        -0.3291
      6 C1          3.2492   -0.7651    0.3544 C.3       1 <0>         0.0254
      7 C2          2.7848   -2.1365   -0.1416 C.3       1 <0>         0.1015
      8 C3          3.4218    1.5819   -0.1170 C.3       1 <0>         0.0021
      9 C4          1.3070   -2.1725   -0.5249 C.3       1 <0>         0.1166
     10 C5          3.2192    2.6412   -1.1957 C.3       1 <0>        -0.0499
     11 C6          2.6227    1.9184    1.1389 C.3       1 <0>        -0.0499
     12 C7         -0.6671   -1.2300    0.4079 C.ar      1 <0>         0.1206
     13 C8         -3.0912    0.0612   -0.0322 C.ar      1 <0>        -0.0384
     14 C9         -1.1740   -0.3674    1.3740 C.ar      1 <0>        -0.0197
     15 C10        -1.3616   -1.4527   -0.7762 C.ar      1 <0>        -0.0197
     16 C11        -2.3896    0.2800    1.1533 C.ar      1 <0>        -0.0547
     17 C12        -2.5772   -0.8052   -0.9970 C.ar      1 <0>        -0.0547
     18 C13        -4.3903    0.7538   -0.2687 C.3       1 <0>         0.0489
     19 C14        -5.5991   -0.0225    0.2278 C.2       1 <0>         0.2148
     20 H1          2.7208   -0.5764    1.2944 H         1 <0>         0.0450
     21 H2          4.3149   -0.8235    0.6113 H         1 <0>         0.0450
     22 H3          3.3846   -2.4472   -1.0054 H         1 <0>         0.0640
     23 H4          4.4899    1.5720    0.1360 H         1 <0>         0.0455
     24 H5          3.5451    0.0667   -1.4848 H         1 <0>         0.1223
     25 H6          1.1386   -1.4733   -1.3527 H         1 <0>         0.0723
     26 H7          1.0418   -3.1858   -0.8490 H         1 <0>         0.0723
     27 H8          3.8068    2.4100   -2.0912 H         1 <0>         0.0245
     28 H9          3.5380    3.6261   -0.8373 H         1 <0>         0.0245
     29 H10         2.1665    2.7163   -1.4915 H         1 <0>         0.0245
     30 H11         2.7473    2.9772    1.3954 H         1 <0>         0.0245
     31 H12         1.5494    1.7453    0.9986 H         1 <0>         0.0245
     32 H13         2.9592    1.3554    2.0149 H         1 <0>         0.0245
     33 H14         3.9595   -3.0859    1.1028 H         1 <0>         0.2100
     34 H15        -0.6301   -0.1937    2.2981 H         1 <0>         0.0654
     35 H16        -1.0132   -2.1435   -1.5381 H         1 <0>         0.0654
     36 H17        -2.7801    0.9514    1.9136 H         1 <0>         0.0622
     37 H18        -3.1189   -0.9905   -1.9209 H         1 <0>         0.0622
     38 H19        -4.5201    0.9501   -1.3410 H         1 <0>         0.0407
     39 H20        -4.3881    1.7357    0.2220 H         1 <0>         0.0407
     40 H21        -7.6780    0.1970    0.2162 H         1 <0>         0.1449
     41 H22        -6.8321    1.4921   -0.5545 H         1 <0>         0.1449
@<TRIPOS>BOND
     1    1    9 1
     2    1   12 1
     3    2    7 1
     4    2   33 1
     5    3   19 2
     6    4    6 1
     7    4    8 1
     8    4   24 1
     9    5   19 am
    10    5   40 1
    11    5   41 1
    12    6    7 1
    13    6   20 1
    14    6   21 1
    15    7    9 1
    16    7   22 1
    17    8   10 1
    18    8   11 1
    19    8   23 1
    20    9   25 1
    21    9   26 1
    22   10   27 1
    23   10   28 1
    24   10   29 1
    25   11   30 1
    26   11   31 1
    27   11   32 1
    28   12   14 ar
    29   12   15 ar
    30   13   16 ar
    31   13   17 ar
    32   13   18 1
    33   14   16 ar
    34   14   34 1
    35   15   17 ar
    36   15   35 1
    37   16   36 1
    38   17   37 1
    39   18   19 1
    40   18   38 1
    41   18   39 1
