@<TRIPOS>MOLECULE
DB00310
   33    35     0     0     0
SMALL
USER_CHARGES

@<TRIPOS>ATOM
      1 Cl1        -4.9498   -0.5549    0.7088 Cl        1 <0>        -0.0815
      2 S1         -3.2287    1.5567   -1.0353 S.o2      1 <0>         0.0574
      3 O1          1.3880   -2.6867    0.3802 O.3       1 <0>        -0.3639
      4 O2          2.8234   -0.3158   -3.0001 O.2       1 <0>        -0.2701
      5 O3         -2.4109    1.9544   -2.1699 O.2       1 <0>        -0.1532
      6 O4         -4.6514    1.3137   -1.2124 O.2       1 <0>        -0.1532
      7 N1          1.3275   -1.4720   -1.6011 N.am      1 <0>        -0.2761
      8 N2         -3.0142    2.6862    0.2271 N.pl3     1 <0>        -0.2035
      9 C1          0.9525   -1.4575   -0.1902 C.3       1 <0>         0.1867
     10 C2          1.8258   -0.3541    0.3433 C.ar      1 <0>         0.0189
     11 C3         -0.5312   -1.2186    0.0282 C.ar      1 <0>         0.0088
     12 C4          2.6144    0.1765   -0.6813 C.ar      1 <0>         0.0446
     13 C5          2.3033   -0.5373   -1.9229 C.2       1 <0>         0.2470
     14 C6         -1.1489   -0.0927   -0.5213 C.ar      1 <0>        -0.0261
     15 C7          1.9384    0.1423    1.6309 C.ar      1 <0>        -0.0532
     16 C8         -1.2835   -2.1242    0.7794 C.ar      1 <0>        -0.0524
     17 C9         -2.5116    0.1263   -0.3203 C.ar      1 <0>         0.1236
     18 C10         3.5170    1.2021   -0.4774 C.ar      1 <0>        -0.0492
     19 C11         2.8451    1.1816    1.8639 C.ar      1 <0>        -0.0613
     20 C12        -2.6464   -1.9051    0.9804 C.ar      1 <0>        -0.0411
     21 C13        -3.2604   -0.7798    0.4304 C.ar      1 <0>         0.0673
     22 C14         3.6263    1.7072    0.8187 C.ar      1 <0>        -0.0610
     23 H1          0.9286   -2.1146   -2.2785 H         1 <0>         0.1524
     24 H2         -0.5589    0.6141   -1.0987 H         1 <0>         0.0642
     25 H3          1.3422   -0.2588    2.4435 H         1 <0>         0.0622
     26 H4         -0.8377   -3.0092    1.2240 H         1 <0>         0.0622
     27 H5          4.1202    1.6032   -1.2835 H         1 <0>         0.0625
     28 H6          1.5902   -3.2839   -0.3597 H         1 <0>         0.2127
     29 H7         -3.2154   -2.6208    1.5685 H         1 <0>         0.0633
     30 H8          2.9495    1.5890    2.8661 H         1 <0>         0.0618
     31 H9          4.3239    2.5143    1.0258 H         1 <0>         0.0618
     32 H10        -2.3180    3.4289    0.0899 H         1 <0>         0.1442
     33 H11        -3.8490    2.9894    0.7434 H         1 <0>         0.1442
@<TRIPOS>BOND
     1    1   21 1
     2    2    5 2
     3    2    6 2
     4    2    8 1
     5    2   17 1
     6    3    9 1
     7    3   28 1
     8    4   13 2
     9    7    9 1
    10    7   13 am
    11    7   23 1
    12    8   32 1
    13    8   33 1
    14    9   10 1
    15    9   11 1
    16   10   12 ar
    17   10   15 ar
    18   11   14 ar
    19   11   16 ar
    20   12   13 1
    21   12   18 ar
    22   14   17 ar
    23   14   24 1
    24   15   19 ar
    25   15   25 1
    26   16   20 ar
    27   16   26 1
    28   17   21 ar
    29   18   22 ar
    30   18   27 1
    31   19   22 ar
    32   19   30 1
    33   20   21 ar
    34   20   29 1
    35   22   31 1
