@<TRIPOS>MOLECULE
DB00865
   39    40     0     0     0
SMALL
USER_CHARGES

@<TRIPOS>ATOM
      1 N1          0.6912    0.0062   -0.1813 N.3       1 <0>        -0.2982
      2 C1         -0.6855    0.2077    0.2797 C.3       1 <0>         0.0116
      3 C2         -1.6489    0.0942   -0.9158 C.3       1 <0>        -0.0123
      4 C3          1.6087   -0.0215    0.9559 C.3       1 <0>         0.0240
      5 C4         -0.7671    1.5687    0.9711 C.3       1 <0>        -0.0492
      6 C5         -3.0689   -0.2318   -0.5194 C.ar      1 <0>        -0.0459
      7 C6          1.0706    1.0580   -1.1222 C.3       1 <0>        -0.0121
      8 C7          3.0275   -0.2836    0.5255 C.ar      1 <0>        -0.0334
      9 C8         -3.4608   -1.5578   -0.4274 C.ar      1 <0>        -0.0585
     10 C9         -3.9542    0.8010   -0.2543 C.ar      1 <0>        -0.0585
     11 C10         3.4879   -1.5907    0.4489 C.ar      1 <0>        -0.0573
     12 C11         3.8550    0.7855    0.2114 C.ar      1 <0>        -0.0573
     13 C12        -4.7724   -1.8591   -0.0609 C.ar      1 <0>        -0.0615
     14 C13        -5.2658    0.4995    0.1123 C.ar      1 <0>        -0.0615
     15 C14         4.8022   -1.8337    0.0502 C.ar      1 <0>        -0.0615
     16 C15         5.1694    0.5424   -0.1875 C.ar      1 <0>        -0.0615
     17 C16        -5.6748   -0.8306    0.2090 C.ar      1 <0>        -0.0617
     18 C17         5.6429   -0.7672   -0.2682 C.ar      1 <0>        -0.0617
     19 H1         -0.9346   -0.5780    1.0054 H         1 <0>         0.0463
     20 H2         -1.3088   -0.6923   -1.6050 H         1 <0>         0.0328
     21 H3         -1.6727    1.0175   -1.5092 H         1 <0>         0.0328
     22 H4          1.3092   -0.8081    1.6617 H         1 <0>         0.0476
     23 H5          1.6329    0.9070    1.5362 H         1 <0>         0.0476
     24 H6         -1.7859    1.7133    1.3504 H         1 <0>         0.0245
     25 H7         -0.5836    2.4191    0.3077 H         1 <0>         0.0245
     26 H8         -0.1425    1.6664    1.8615 H         1 <0>         0.0245
     27 H9          0.3430    1.2164   -1.9227 H         1 <0>         0.0391
     28 H10         1.9693    0.7612   -1.6753 H         1 <0>         0.0391
     29 H11         1.2747    2.0288   -0.6570 H         1 <0>         0.0391
     30 H12        -2.7647   -2.3660   -0.6328 H         1 <0>         0.0620
     31 H13        -3.6488    1.8405   -0.3314 H         1 <0>         0.0620
     32 H14         2.8410   -2.4288    0.6924 H         1 <0>         0.0621
     33 H15         3.5079    1.8121    0.2832 H         1 <0>         0.0621
     34 H16        -5.0908   -2.8947    0.0152 H         1 <0>         0.0618
     35 H17        -5.9691    1.3004    0.3213 H         1 <0>         0.0618
     36 H18         5.1709   -2.8533   -0.0129 H         1 <0>         0.0618
     37 H19         5.8252    1.3728   -0.4320 H         1 <0>         0.0618
     38 H20        -6.6961   -1.0652    0.4944 H         1 <0>         0.0618
     39 H21         6.6664   -0.9563   -0.5780 H         1 <0>         0.0618
@<TRIPOS>BOND
     1    1    2 1
     2    1    4 1
     3    1    7 1
     4    2    3 1
     5    2    5 1
     6    2   19 1
     7    3    6 1
     8    3   20 1
     9    3   21 1
    10    4    8 1
    11    4   22 1
    12    4   23 1
    13    5   24 1
    14    5   25 1
    15    5   26 1
    16    6    9 ar
    17    6   10 ar
    18    7   27 1
    19    7   28 1
    20    7   29 1
    21    8   11 ar
    22    8   12 ar
    23    9   13 ar
    24    9   30 1
    25   10   14 ar
    26   10   31 1
    27   11   15 ar
    28   11   32 1
    29   12   16 ar
    30   12   33 1
    31   13   17 ar
    32   13   34 1
    33   14   17 ar
    34   14   35 1
    35   15   18 ar
    36   15   36 1
    37   16   18 ar
    38   16   37 1
    39   17   38 1
    40   18   39 1
