@<TRIPOS>MOLECULE
DB00536
    9     8     0     0     0
SMALL
USER_CHARGES

@<TRIPOS>ATOM
      1 N1          1.3305    0.0983    0.0003 N.pl3     1 <0>        -0.2894
      2 N2         -0.7700   -0.8283   -0.0003 N.pl3     1 <0>        -0.2894
      3 N3         -0.5513    1.5096    0.0001 N.2       1 <0>        -0.1299
      4 C1         -0.0217    0.3194    0.0000 C.2       1 <0>         0.3740
      5 H1          1.9887    0.8700    0.0002 H         1 <0>         0.2546
      6 H2          1.7137   -0.8407   -0.0007 H         1 <0>         0.2546
      7 H3         -1.7838   -0.7981   -0.0001 H         1 <0>         0.2546
      8 H4         -0.3332   -1.7436    0.0006 H         1 <0>         0.2546
      9 H5         -1.5729    1.4137   -0.0001 H         1 <0>         0.3062
@<TRIPOS>BOND
     1    1    4 1
     2    1    5 1
     3    1    6 1
     4    2    4 1
     5    2    7 1
     6    2    8 1
     7    3    4 2
     8    3    9 1
