@<TRIPOS>MOLECULE
DB00799
   46    48     0     0     0
SMALL
USER_CHARGES

@<TRIPOS>ATOM
      1 S1         -6.1144    2.2702   -0.0672 S.3       1 <0>        -0.1249
      2 O1          7.0352   -0.0368    0.2821 O.3       1 <0>        -0.4614
      3 O2          6.9076   -1.3235   -1.6111 O.2       1 <0>        -0.2449
      4 N1          3.0382    0.7061    0.3277 N.ar      1 <0>        -0.2459
      5 C1         -4.9554   -0.7648    0.4520 C.3       1 <0>        -0.0080
      6 C2         -6.3651   -0.2753    0.8729 C.3       1 <0>        -0.0345
      7 C3         -3.9946    0.3829    0.1094 C.ar      1 <0>        -0.0272
      8 C4         -5.0720   -1.6951   -0.7765 C.3       1 <0>        -0.0557
      9 C5         -4.4266   -1.6027    1.6442 C.3       1 <0>        -0.0557
     10 C6         -6.9997    0.6965   -0.1030 C.3       1 <0>        -0.0009
     11 C7         -4.4170    1.7075   -0.1272 C.ar      1 <0>         0.0116
     12 C8         -2.6141    0.1058   -0.0162 C.ar      1 <0>        -0.0416
     13 C9         -3.4679    2.7034   -0.4314 C.ar      1 <0>        -0.0469
     14 C10        -1.6851    1.0998   -0.3260 C.ar      1 <0>         0.0257
     15 C11        -2.1122    2.4023   -0.5281 C.ar      1 <0>        -0.0453
     16 C12        -0.2979    0.7748   -0.4357 C.1       1 <0>        -0.0595
     17 C13         0.8698    0.5013   -0.5284 C.1       1 <0>        -0.0412
     18 C14         2.2583    0.1761   -0.6387 C.ar      1 <0>         0.1137
     19 C15         2.7249   -0.6199   -1.6694 C.ar      1 <0>        -0.0270
     20 C16         4.9266   -0.3655   -0.7354 C.ar      1 <0>         0.0771
     21 C17         4.0879   -0.8917   -1.7116 C.ar      1 <0>        -0.0437
     22 C18         4.3574    0.4202    0.2539 C.ar      1 <0>         0.0429
     23 C19         6.3542   -0.6311   -0.7525 C.2       1 <0>         0.3407
     24 C20         8.4494   -0.2585    0.3258 C.3       1 <0>         0.0900
     25 C21         9.0255    0.4669    1.5231 C.3       1 <0>        -0.0306
     26 H1         -6.3244    0.1842    1.8713 H         1 <0>         0.0282
     27 H2         -7.0325   -1.1418    0.9754 H         1 <0>         0.0282
     28 H3         -5.8026   -2.4931   -0.6009 H         1 <0>         0.0238
     29 H4         -5.3790   -1.1498   -1.6755 H         1 <0>         0.0238
     30 H5         -4.1156   -2.1779   -1.0099 H         1 <0>         0.0238
     31 H6         -3.5041   -2.1418    1.4054 H         1 <0>         0.0238
     32 H7         -4.2235   -0.9673    2.5145 H         1 <0>         0.0238
     33 H8         -5.1596   -2.3599    1.9475 H         1 <0>         0.0238
     34 H9         -7.0196    0.3056   -1.1239 H         1 <0>         0.0380
     35 H10        -8.0371    0.8901    0.1889 H         1 <0>         0.0380
     36 H11        -2.2521   -0.9115    0.1213 H         1 <0>         0.0633
     37 H12        -3.7770    3.7329   -0.6053 H         1 <0>         0.0629
     38 H13        -1.4075    3.1944   -0.7686 H         1 <0>         0.0630
     39 H14         2.0624   -1.0257   -2.4269 H         1 <0>         0.0645
     40 H15         4.4763   -1.5148   -2.5126 H         1 <0>         0.0627
     41 H16         4.9398    0.8691    1.0522 H         1 <0>         0.0838
     42 H17         8.6471   -1.3326    0.4126 H         1 <0>         0.0695
     43 H18         8.9063    0.1230   -0.5940 H         1 <0>         0.0695
     44 H19        10.1072    0.3186    1.5872 H         1 <0>         0.0262
     45 H20         8.8187    1.5403    1.4594 H         1 <0>         0.0262
     46 H21         8.5639    0.1089    2.4492 H         1 <0>         0.0262
@<TRIPOS>BOND
     1    1   10 1
     2    1   11 1
     3    2   23 1
     4    2   24 1
     5    3   23 2
     6    4   18 ar
     7    4   22 ar
     8    5    6 1
     9    5    7 1
    10    5    8 1
    11    5    9 1
    12    6   10 1
    13    6   26 1
    14    6   27 1
    15    7   11 ar
    16    7   12 ar
    17    8   28 1
    18    8   29 1
    19    8   30 1
    20    9   31 1
    21    9   32 1
    22    9   33 1
    23   10   34 1
    24   10   35 1
    25   11   13 ar
    26   12   14 ar
    27   12   36 1
    28   13   15 ar
    29   13   37 1
    30   14   15 ar
    31   14   16 1
    32   15   38 1
    33   16   17 3
    34   17   18 1
    35   18   19 ar
    36   19   21 ar
    37   19   39 1
    38   20   21 ar
    39   20   22 ar
    40   20   23 1
    41   21   40 1
    42   22   41 1
    43   24   25 1
    44   24   42 1
    45   24   43 1
    46   25   44 1
    47   25   45 1
    48   25   46 1
