@<TRIPOS>MOLECULE
DB00414
   42    43     0     0     0
SMALL
USER_CHARGES

@<TRIPOS>ATOM
      1 S1          1.2789   -3.0811    0.2006 S.o2      1 <0>         0.0756
      2 O1         -0.5699   -1.3004    1.9494 O.2       1 <0>        -0.2512
      3 O2          1.3202   -3.4557    1.6010 O.2       1 <0>        -0.1499
      4 O3          1.5401   -4.0654   -0.8318 O.2       1 <0>        -0.1499
      5 O4          5.6758    1.6127   -1.7657 O.2       1 <0>        -0.2924
      6 N1         -2.1049   -0.9879    0.2494 N.am      1 <0>        -0.2953
      7 N2         -0.2021   -2.2948   -0.1319 N.am      1 <0>        -0.1693
      8 C1         -3.0207   -0.1485    0.9893 C.3       1 <0>         0.0246
      9 C2         -2.6228    1.3276    0.8832 C.3       1 <0>        -0.0345
     10 C3         -4.4653   -0.3689    0.5282 C.3       1 <0>        -0.0345
     11 C4         -2.8922    1.9077   -0.5051 C.3       1 <0>        -0.0514
     12 C5         -4.7316    0.2140   -0.8599 C.3       1 <0>        -0.0514
     13 C6         -4.3385    1.6861   -0.9373 C.3       1 <0>        -0.0529
     14 C7         -0.9443   -1.4987    0.7974 C.2       1 <0>         0.3191
     15 C8          2.4267   -1.7606   -0.0499 C.ar      1 <0>         0.1087
     16 C9          2.7668   -0.9493    1.0188 C.ar      1 <0>        -0.0344
     17 C10         2.9635   -1.5615   -1.3102 C.ar      1 <0>        -0.0344
     18 C11         4.2224    0.3091   -0.4422 C.ar      1 <0>         0.0172
     19 C12         3.6717    0.0937    0.8210 C.ar      1 <0>        -0.0494
     20 C13         3.8685   -0.5185   -1.5077 C.ar      1 <0>        -0.0494
     21 C14         5.1665    1.3959   -0.6480 C.2       1 <0>         0.1601
     22 C15         5.5586    2.3038    0.5127 C.3       1 <0>        -0.0014
     23 H1         -2.9521   -0.4435    2.0439 H         1 <0>         0.0499
     24 H2         -1.5630    1.4601    1.1320 H         1 <0>         0.0283
     25 H3         -3.1951    1.9038    1.6216 H         1 <0>         0.0283
     26 H4         -5.1452    0.1071    1.2462 H         1 <0>         0.0283
     27 H5         -4.7049   -1.4390    0.5247 H         1 <0>         0.0283
     28 H6         -2.2169    1.4465   -1.2361 H         1 <0>         0.0266
     29 H7         -2.6703    2.9810   -0.5029 H         1 <0>         0.0266
     30 H8         -5.7955    0.1075   -1.1012 H         1 <0>         0.0266
     31 H9         -4.1806   -0.3536   -1.6188 H         1 <0>         0.0266
     32 H10        -5.0045    2.2748   -0.2945 H         1 <0>         0.0265
     33 H11        -4.4781    2.0519   -1.9607 H         1 <0>         0.0265
     34 H12        -2.2930   -1.1761   -0.7303 H         1 <0>         0.1506
     35 H13        -0.6080   -2.4425   -1.0647 H         1 <0>         0.1781
     36 H14         2.3459   -1.0986    2.0082 H         1 <0>         0.0637
     37 H15         2.6946   -2.1891   -2.1541 H         1 <0>         0.0637
     38 H16         3.9188    0.7142    1.6769 H         1 <0>         0.0625
     39 H17         4.2826   -0.3696   -2.5015 H         1 <0>         0.0625
     40 H18         6.0446    1.7222    1.3003 H         1 <0>         0.0309
     41 H19         4.6801    2.8309    0.8939 H         1 <0>         0.0309
     42 H20         6.2731    3.0524    0.1558 H         1 <0>         0.0309
@<TRIPOS>BOND
     1    1    3 2
     2    1    4 2
     3    1    7 1
     4    1   15 1
     5    2   14 2
     6    5   21 2
     7    6    8 1
     8    6   14 am
     9    6   34 1
    10    7   14 am
    11    7   35 1
    12    8    9 1
    13    8   10 1
    14    8   23 1
    15    9   11 1
    16    9   24 1
    17    9   25 1
    18   10   12 1
    19   10   26 1
    20   10   27 1
    21   11   13 1
    22   11   28 1
    23   11   29 1
    24   12   13 1
    25   12   30 1
    26   12   31 1
    27   13   32 1
    28   13   33 1
    29   15   16 ar
    30   15   17 ar
    31   16   19 ar
    32   16   36 1
    33   17   20 ar
    34   17   37 1
    35   18   19 ar
    36   18   20 ar
    37   18   21 1
    38   19   38 1
    39   20   39 1
    40   21   22 1
    41   22   40 1
    42   22   41 1
    43   22   42 1
