@<TRIPOS>MOLECULE
DB00439
   67    68     0     0     0
SMALL
USER_CHARGES

@<TRIPOS>ATOM
      1 F1         -2.7334   -6.0552    0.0009 F         1 <0>        -0.2055
      2 O1         -4.6625   -0.1770    0.6780 O.3       1 <0>        -0.3783
      3 O2          2.5265   -3.9035   -0.6430 O.3       1 <0>        -0.3877
      4 O3          4.5935   -0.9007    1.5217 O.3       1 <0>        -0.3912
      5 O4          6.7519    1.9465   -1.0731 O.3       1 <0>        -0.4806
      6 O5          5.4134    1.9096    0.7612 O.2       1 <0>        -0.2509
      7 N1         -0.9377    2.1283    0.0697 N.ar      1 <0>        -0.2550
      8 C1         -2.1789    1.6654   -0.2000 C.ar      1 <0>         0.0501
      9 C2          0.0070    1.1970    0.3302 C.ar      1 <0>         0.0519
     10 C3         -2.5182    0.3222   -0.2215 C.ar      1 <0>         0.0079
     11 C4         -0.2301   -0.1682    0.3337 C.ar      1 <0>         0.0044
     12 C5         -1.5194   -0.6056    0.0516 C.ar      1 <0>        -0.0019
     13 C6          1.3679    1.7420    0.6244 C.3       1 <0>        -0.0037
     14 C7         -3.2081    2.7100   -0.4856 C.3       1 <0>        -0.0039
     15 C8         -3.9176   -0.1003   -0.5303 C.3       1 <0>         0.0746
     16 C9         -1.8349   -2.0251    0.0386 C.ar      1 <0>        -0.0167
     17 C10         0.8611   -1.1127    0.6288 C.2       1 <0>        -0.0538
     18 C11         2.7845   -2.6474   -0.0238 C.3       1 <0>         0.0760
     19 C12         1.3849    2.6236    1.8858 C.3       1 <0>        -0.0572
     20 C13         1.9578    2.5174   -0.5668 C.3       1 <0>        -0.0572
     21 C14        -3.4438    3.6447    0.7146 C.3       1 <0>        -0.0572
     22 C15        -2.8700    3.5393   -1.7379 C.3       1 <0>        -0.0572
     23 C16         4.1206   -2.0775   -0.5321 C.3       1 <0>         0.0034
     24 C17         1.6620   -1.6725   -0.2928 C.2       1 <0>        -0.0552
     25 C18         4.4992   -0.7338    0.1092 C.3       1 <0>         0.0679
     26 C19        -1.7130   -2.7559   -1.1433 C.ar      1 <0>        -0.0513
     27 C20        -2.2603   -2.6558    1.2077 C.ar      1 <0>        -0.0513
     28 C21         5.8075   -0.1549   -0.4340 C.3       1 <0>         0.0708
     29 C22        -2.0165   -4.1173   -1.1560 C.ar      1 <0>        -0.0259
     30 C23        -2.5640   -4.0172    1.1950 C.ar      1 <0>        -0.0259
     31 C24        -2.4420   -4.7478    0.0131 C.ar      1 <0>         0.1234
     32 C25        -6.0053   -0.5762    0.4384 C.3       1 <0>         0.0369
     33 C26         5.9602    1.3243   -0.1649 C.2       1 <0>         0.3072
     34 H1          2.0757    0.9443    0.8486 H         1 <0>         0.0359
     35 H2         -4.1980    2.2972   -0.6758 H         1 <0>         0.0359
     36 H3         -4.4142    0.5271   -1.2765 H         1 <0>         0.0610
     37 H4         -3.9303   -1.0868   -1.0079 H         1 <0>         0.0610
     38 H5          0.9979   -1.3463    1.6815 H         1 <0>         0.0622
     39 H6          2.8642   -2.8406    1.0525 H         1 <0>         0.0638
     40 H7          4.9044   -2.8175   -0.3220 H         1 <0>         0.0318
     41 H8          4.0870   -1.9788   -1.6252 H         1 <0>         0.0318
     42 H9          0.7615    3.5160    1.7613 H         1 <0>         0.0236
     43 H10         1.0067    2.0696    2.7520 H         1 <0>         0.0236
     44 H11         2.4039    2.9538    2.1146 H         1 <0>         0.0236
     45 H12         1.3491    3.3931   -0.8186 H         1 <0>         0.0236
     46 H13         2.0106    1.8793   -1.4559 H         1 <0>         0.0236
     47 H14         2.9705    2.8668   -0.3415 H         1 <0>         0.0236
     48 H15        -4.2408    4.3641    0.4979 H         1 <0>         0.0236
     49 H16        -3.7377    3.0714    1.6009 H         1 <0>         0.0236
     50 H17        -2.5399    4.2104    0.9667 H         1 <0>         0.0236
     51 H18        -2.7577    2.8903   -2.6133 H         1 <0>         0.0236
     52 H19        -3.6652    4.2613   -1.9526 H         1 <0>         0.0236
     53 H20        -1.9351    4.0964   -1.6110 H         1 <0>         0.0236
     54 H21         1.4985   -1.4231   -1.3405 H         1 <0>         0.0598
     55 H22         3.7064   -0.0110   -0.0901 H         1 <0>         0.0599
     56 H23        -1.3831   -2.2795   -2.0636 H         1 <0>         0.0624
     57 H24        -2.3613   -2.1006    2.1372 H         1 <0>         0.0624
     58 H25         5.8338   -0.2902   -1.5217 H         1 <0>         0.0403
     59 H26         6.6723   -0.6613    0.0084 H         1 <0>         0.0403
     60 H27        -1.9216   -4.6865   -2.0760 H         1 <0>         0.0646
     61 H28        -2.8955   -4.5084    2.1049 H         1 <0>         0.0646
     62 H29         1.6617   -4.2167   -0.3267 H         1 <0>         0.2102
     63 H30         4.7764   -0.0284    1.9104 H         1 <0>         0.2098
     64 H31        -6.5127    0.1505   -0.2032 H         1 <0>         0.0524
     65 H32        -6.0346   -1.5701   -0.0187 H         1 <0>         0.0524
     66 H33        -6.5275   -0.6185    1.3979 H         1 <0>         0.0524
     67 H34         6.8322    2.9072   -0.8915 H         1 <0>         0.2951
@<TRIPOS>BOND
     1    1   31 1
     2    2   15 1
     3    2   32 1
     4    3   18 1
     5    3   62 1
     6    4   25 1
     7    4   63 1
     8    5   33 1
     9    5   67 1
    10    6   33 2
    11    7    8 ar
    12    7    9 ar
    13    8   10 ar
    14    8   14 1
    15    9   11 ar
    16    9   13 1
    17   10   12 ar
    18   10   15 1
    19   11   12 ar
    20   11   17 1
    21   12   16 1
    22   13   19 1
    23   13   20 1
    24   13   34 1
    25   14   21 1
    26   14   22 1
    27   14   35 1
    28   15   36 1
    29   15   37 1
    30   16   26 ar
    31   16   27 ar
    32   17   24 2
    33   17   38 1
    34   18   23 1
    35   18   24 1
    36   18   39 1
    37   19   42 1
    38   19   43 1
    39   19   44 1
    40   20   45 1
    41   20   46 1
    42   20   47 1
    43   21   48 1
    44   21   49 1
    45   21   50 1
    46   22   51 1
    47   22   52 1
    48   22   53 1
    49   23   25 1
    50   23   40 1
    51   23   41 1
    52   24   54 1
    53   25   28 1
    54   25   55 1
    55   26   29 ar
    56   26   56 1
    57   27   30 ar
    58   27   57 1
    59   28   33 1
    60   28   58 1
    61   28   59 1
    62   29   31 ar
    63   29   60 1
    64   30   31 ar
    65   30   61 1
    66   32   64 1
    67   32   65 1
    68   32   66 1
