@<TRIPOS>MOLECULE
DB00265
   32    32     0     0     0
SMALL
USER_CHARGES

@<TRIPOS>ATOM
      1 O1         -1.2510    2.4617    0.9258 O.2       1 <0>        -0.2703
      2 N1          0.4601    1.0208    0.2046 N.am      1 <0>        -0.2680
      3 C1          0.8176   -0.3270   -0.2035 C.ar      1 <0>         0.0394
      4 C2          1.5618    1.9833    0.3725 C.3       1 <0>         0.0173
      5 C3          1.1624   -1.2376    0.7563 C.ar      1 <0>        -0.0290
      6 C4          0.7856   -0.6019   -1.5441 C.ar      1 <0>        -0.0400
      7 C5         -0.8719    1.3677    0.5070 C.2       1 <0>         0.2433
      8 C6          1.5023   -2.5262    0.3444 C.ar      1 <0>        -0.0571
      9 C7          1.7917    2.7891   -0.8893 C.3       1 <0>        -0.0489
     10 C8          1.1908   -0.9164    2.2155 C.3       1 <0>        -0.0379
     11 C9          1.1255   -1.8905   -1.9558 C.ar      1 <0>        -0.0600
     12 C10         1.4839   -2.8526   -1.0117 C.ar      1 <0>        -0.0614
     13 C11        -1.8805    0.2855    0.3029 C.2       1 <0>        -0.0035
     14 C12        -3.1531    0.5953    0.0201 C.2       1 <0>        -0.0822
     15 C13        -4.2253   -0.4274   -0.1681 C.3       1 <0>        -0.0464
     16 H1          1.3033    2.6619    1.1929 H         1 <0>         0.0466
     17 H2          2.4776    1.4530    0.6555 H         1 <0>         0.0466
     18 H3          0.5043    0.1431   -2.2812 H         1 <0>         0.0636
     19 H4          1.7845   -3.2881    1.0662 H         1 <0>         0.0621
     20 H5          2.0957    2.1477   -1.7223 H         1 <0>         0.0245
     21 H6          0.8824    3.3193   -1.1911 H         1 <0>         0.0245
     22 H7          2.5812    3.5298   -0.7287 H         1 <0>         0.0245
     23 H8          1.9655   -0.1745    2.4324 H         1 <0>         0.0278
     24 H9          0.2209   -0.5369    2.5519 H         1 <0>         0.0278
     25 H10         1.4117   -1.8029    2.8203 H         1 <0>         0.0278
     26 H11         1.1102   -2.1449   -3.0116 H         1 <0>         0.0618
     27 H12         1.7484   -3.8558   -1.3326 H         1 <0>         0.0618
     28 H13        -1.5981   -0.7536    0.4148 H         1 <0>         0.0666
     29 H14        -3.4580    1.6328   -0.0875 H         1 <0>         0.0571
     30 H15        -4.6546   -0.3363   -1.1705 H         1 <0>         0.0272
     31 H16        -3.8513   -1.4494   -0.0491 H         1 <0>         0.0272
     32 H17        -5.0233   -0.2690    0.5636 H         1 <0>         0.0272
@<TRIPOS>BOND
     1    1    7 2
     2    2    3 1
     3    2    4 1
     4    2    7 am
     5    3    5 ar
     6    3    6 ar
     7    4    9 1
     8    4   16 1
     9    4   17 1
    10    5    8 ar
    11    5   10 1
    12    6   11 ar
    13    6   18 1
    14    7   13 1
    15    8   12 ar
    16    8   19 1
    17    9   20 1
    18    9   21 1
    19    9   22 1
    20   10   23 1
    21   10   24 1
    22   10   25 1
    23   11   12 ar
    24   11   26 1
    25   12   27 1
    26   13   14 2
    27   13   28 1
    28   14   15 1
    29   14   29 1
    30   15   30 1
    31   15   31 1
    32   15   32 1
