@<TRIPOS>MOLECULE
DB00574
   32    32     0     0     0
SMALL
USER_CHARGES

@<TRIPOS>ATOM
      1 F1         -5.4666    1.2988   -0.3639 F         1 <0>        -0.1659
      2 F2         -4.4164    2.0008    1.3991 F         1 <0>        -0.1659
      3 F3         -3.7207    2.5772   -0.5789 F         1 <0>        -0.1659
      4 N1          2.5779   -0.1852    0.5306 N.3       1 <0>        -0.3135
      5 C1          1.2335   -0.2033   -0.0533 C.3       1 <0>         0.0088
      6 C2          0.2121   -0.6232    1.0196 C.3       1 <0>        -0.0125
      7 C3         -1.2044   -0.7113    0.5043 C.ar      1 <0>        -0.0454
      8 C4          0.9409    1.1821   -0.6301 C.3       1 <0>        -0.0494
      9 C5          3.5693    0.1482   -0.4784 C.3       1 <0>        -0.0067
     10 C6         -2.0179    0.4092    0.5589 C.ar      1 <0>        -0.0469
     11 C7         -1.6646   -1.9111   -0.0142 C.ar      1 <0>        -0.0585
     12 C8         -3.3263    0.3278    0.0825 C.ar      1 <0>         0.0551
     13 C9         -2.9732   -1.9926   -0.4905 C.ar      1 <0>        -0.0610
     14 C10        -3.8039   -0.8731   -0.4421 C.ar      1 <0>        -0.0501
     15 C11         4.9472    0.1682    0.0996 C.3       1 <0>        -0.0526
     16 C12        -4.2151    1.5242    0.1350 C.3       1 <0>         0.4174
     17 H1          1.1957   -0.9380   -0.8687 H         1 <0>         0.0461
     18 H2          0.2429    0.0771    1.8661 H         1 <0>         0.0328
     19 H3          0.4952   -1.5975    1.4422 H         1 <0>         0.0328
     20 H4          2.7889   -1.0981    0.9332 H         1 <0>         0.1222
     21 H5          1.5493    1.4175   -1.5084 H         1 <0>         0.0245
     22 H6          1.0786    1.9725    0.1166 H         1 <0>         0.0245
     23 H7         -0.0842    1.2553   -1.0031 H         1 <0>         0.0245
     24 H8          3.5361   -0.5704   -1.3057 H         1 <0>         0.0421
     25 H9          3.4212    1.1489   -0.8923 H         1 <0>         0.0421
     26 H10        -1.6508    1.3440    0.9747 H         1 <0>         0.0626
     27 H11        -1.0244   -2.7874   -0.0582 H         1 <0>         0.0620
     28 H12        -3.3447   -2.9275   -0.8996 H         1 <0>         0.0618
     29 H13        -4.8198   -0.9563   -0.8180 H         1 <0>         0.0623
     30 H14         5.0348    0.9056    0.9053 H         1 <0>         0.0242
     31 H15         5.2260   -0.8101    0.5064 H         1 <0>         0.0242
     32 H16         5.6833    0.4277   -0.6688 H         1 <0>         0.0242
@<TRIPOS>BOND
     1    1   16 1
     2    2   16 1
     3    3   16 1
     4    4    5 1
     5    4    9 1
     6    4   20 1
     7    5    6 1
     8    5    8 1
     9    5   17 1
    10    6    7 1
    11    6   18 1
    12    6   19 1
    13    7   10 ar
    14    7   11 ar
    15    8   21 1
    16    8   22 1
    17    8   23 1
    18    9   15 1
    19    9   24 1
    20    9   25 1
    21   10   12 ar
    22   10   26 1
    23   11   13 ar
    24   11   27 1
    25   12   14 ar
    26   12   16 1
    27   13   14 ar
    28   13   28 1
    29   14   29 1
    30   15   30 1
    31   15   31 1
    32   15   32 1
