@<TRIPOS>MOLECULE
DB00170
   21    22     0     0     0
SMALL
USER_CHARGES

@<TRIPOS>ATOM
      1 O1         -1.1455   -2.2314   -0.0022 O.2       1 <0>        -0.2870
      2 O2         -0.0103    2.9915    0.0000 O.2       1 <0>        -0.2872
      3 C1          0.5263   -0.5762   -0.0007 C.ar      1 <0>         0.0327
      4 C2          0.8302    0.7859   -0.0007 C.ar      1 <0>         0.0325
      5 C3         -1.9499   -0.0028   -0.0005 C.2       1 <0>         0.0004
      6 C4         -0.8776   -1.0351   -0.0011 C.2       1 <0>         0.1897
      7 C5         -0.2481    1.7899   -0.0008 C.2       1 <0>         0.1871
      8 C6         -1.6414    1.2990   -0.0002 C.2       1 <0>        -0.0078
      9 C7          1.5606   -1.5201    0.0000 C.ar      1 <0>        -0.0502
     10 C8          2.1652    1.2067   -0.0003 C.ar      1 <0>        -0.0503
     11 C9         -3.3659   -0.4926    0.0007 C.3       1 <0>        -0.0359
     12 C10         2.8906   -1.0978    0.0006 C.ar      1 <0>        -0.0610
     13 C11         3.1923    0.2627    0.0003 C.ar      1 <0>        -0.0610
     14 H1         -2.4179    2.0578    0.0005 H         1 <0>         0.0660
     15 H2          1.3522   -2.5866    0.0001 H         1 <0>         0.0625
     16 H3          2.4247    2.2620   -0.0004 H         1 <0>         0.0625
     17 H4         -4.0858    0.3328    0.0017 H         1 <0>         0.0279
     18 H5         -3.5592   -1.1020    0.8896 H         1 <0>         0.0279
     19 H6         -3.5609   -1.1012   -0.8885 H         1 <0>         0.0279
     20 H7          3.6921   -1.8310    0.0012 H         1 <0>         0.0618
     21 H8          4.2284    0.5886    0.0007 H         1 <0>         0.0618
@<TRIPOS>BOND
     1    1    6 2
     2    2    7 2
     3    3    4 ar
     4    3    6 1
     5    3    9 ar
     6    4    7 1
     7    4   10 ar
     8    5    6 1
     9    5    8 2
    10    5   11 1
    11    7    8 1
    12    8   14 1
    13    9   12 ar
    14    9   15 1
    15   10   13 ar
    16   10   16 1
    17   11   17 1
    18   11   18 1
    19   11   19 1
    20   12   13 ar
    21   12   20 1
    22   13   21 1
