@<TRIPOS>MOLECULE
DB00969
   40    43     0     0     0
SMALL
USER_CHARGES

@<TRIPOS>ATOM
      1 O1          0.1273    2.0632   -1.3851 O.2       1 <0>        -0.2699
      2 N1          1.1231   -0.0211   -1.0313 N.am      1 <0>        -0.2912
      3 N2         -2.6220   -1.2494    0.1353 N.pl3     1 <0>        -0.3460
      4 N3          3.2215    2.2663   -0.0742 N.2       1 <0>        -0.2390
      5 N4          4.6295    1.1985    1.2708 N.pl3     1 <0>        -0.3481
      6 C1         -1.3525   -1.0071   -0.2973 C.cat     1 <0>         0.0331
      7 C2         -0.3015   -2.0253   -0.5057 C.3       1 <0>         0.0043
      8 C3         -1.2070    0.3419   -0.5281 C.2       1 <0>         0.0653
      9 C4          1.0559   -1.3317   -0.3527 C.3       1 <0>         0.0207
     10 C5         -2.4593    0.9553   -0.2296 C.ar      1 <0>         0.0122
     11 C6         -3.3247   -0.0645    0.1860 C.ar      1 <0>         0.0498
     12 C7          0.0495    0.8951   -1.0135 C.2       1 <0>         0.2493
     13 C8          2.4341    0.4079   -1.4934 C.3       1 <0>         0.0588
     14 C9         -3.1520   -2.5456    0.5030 C.3       1 <0>         0.0121
     15 C10        -2.9494    2.2775   -0.2678 C.ar      1 <0>        -0.0518
     16 C11        -4.6510    0.1767    0.5629 C.ar      1 <0>        -0.0376
     17 C12         3.2778    0.9443   -0.3677 C.cat     1 <0>         0.0790
     18 C13        -4.2739    2.5313    0.1065 C.ar      1 <0>        -0.0611
     19 C14        -5.1101    1.4954    0.5154 C.ar      1 <0>        -0.0598
     20 C15         4.1251    0.2491    0.4274 C.2       1 <0>         0.0370
     21 C16         4.5203   -1.1659    0.5028 C.3       1 <0>        -0.0226
     22 C17         4.0582    2.3933    0.9317 C.2       1 <0>         0.0939
     23 H1         -0.3678   -2.8536    0.2066 H         1 <0>         0.0343
     24 H2         -0.3966   -2.4367   -1.5176 H         1 <0>         0.0343
     25 H3          1.2617   -1.1465    0.7089 H         1 <0>         0.0468
     26 H4          1.8388   -1.9888   -0.7463 H         1 <0>         0.0468
     27 H5          2.3077    1.1980   -2.2433 H         1 <0>         0.0530
     28 H6          2.9284   -0.4294   -1.9981 H         1 <0>         0.0530
     29 H7         -2.6554   -3.3238   -0.0811 H         1 <0>         0.0456
     30 H8         -2.9734   -2.6940    1.5707 H         1 <0>         0.0456
     31 H9         -4.2214   -2.5822    0.2833 H         1 <0>         0.0456
     32 H10        -2.3129    3.0996   -0.5823 H         1 <0>         0.0624
     33 H11        -5.3114   -0.6206    0.8868 H         1 <0>         0.0638
     34 H12        -4.6525    3.5496    0.0780 H         1 <0>         0.0618
     35 H13        -6.1350    1.7150    0.8030 H         1 <0>         0.0618
     36 H14         5.3017    1.0481    2.0114 H         1 <0>         0.1665
     37 H15         5.5472   -1.2731    0.8677 H         1 <0>         0.0292
     38 H16         3.8601   -1.7121    1.1838 H         1 <0>         0.0292
     39 H17         4.4697   -1.6451   -0.4797 H         1 <0>         0.0292
     40 H18         4.2925    3.3104    1.4532 H         1 <0>         0.1027
@<TRIPOS>BOND
     1    1   12 2
     2    2    9 1
     3    2   12 am
     4    2   13 1
     5    3    6 1
     6    3   11 2
     7    3   14 1
     8    4   17 1
     9    4   22 2
    10    5   20 2
    11    5   22 1
    12    5   36 1
    13    6    7 1
    14    6    8 1
    15    7    9 1
    16    7   23 1
    17    7   24 1
    18    8   10 2
    19    8   12 1
    20    9   25 1
    21    9   26 1
    22   10   11 ar
    23   10   15 ar
    24   11   16 ar
    25   13   17 1
    26   13   27 1
    27   13   28 1
    28   14   29 1
    29   14   30 1
    30   14   31 1
    31   15   18 ar
    32   15   32 1
    33   16   19 ar
    34   16   33 1
    35   17   20 1
    36   18   19 ar
    37   18   34 1
    38   19   35 1
    39   20   21 1
    40   21   37 1
    41   21   38 1
    42   21   39 1
    43   22   40 1
