@<TRIPOS>MOLECULE
DB00484
   27    29     0     0     0
SMALL
USER_CHARGES

@<TRIPOS>ATOM
      1 Br1         1.1131   -3.0269   -0.1575 Br        1 <0>        -0.0446
      2 N1         -3.3815   -1.0267    0.2653 N.pl3     1 <0>        -0.2350
      3 N2         -1.0806   -0.8896    0.4072 N.pl3     1 <0>        -0.2052
      4 N3         -2.4053    0.9198   -0.3739 N.2       1 <0>        -0.1140
      5 N4          3.6750   -1.3729   -0.2701 N.ar      1 <0>        -0.2507
      6 N5          3.9854    1.3701    0.0451 N.ar      1 <0>        -0.2519
      7 C1         -4.5312   -0.2648   -0.1161 C.3       1 <0>         0.0920
      8 C2         -3.8831    1.0570   -0.5475 C.3       1 <0>         0.1328
      9 C3         -2.2443   -0.2964    0.0904 C.2       1 <0>         0.3694
     10 C4          0.2186   -0.3440    0.3112 C.ar      1 <0>         0.1078
     11 C5          1.3367   -1.1384    0.0634 C.ar      1 <0>         0.0815
     12 C6          2.6118   -0.5856   -0.0303 C.ar      1 <0>         0.1062
     13 C7          0.3735    1.0253    0.4683 C.ar      1 <0>        -0.0220
     14 C8          2.7689    0.8034    0.1292 C.ar      1 <0>         0.0905
     15 C9          1.6452    1.5883    0.3765 C.ar      1 <0>        -0.0311
     16 C10         4.8831   -0.7868   -0.3507 C.ar      1 <0>         0.0464
     17 C11         5.0361    0.5652   -0.1952 C.ar      1 <0>         0.0464
     18 H1         -5.2148   -0.1213    0.7257 H         1 <0>         0.0665
     19 H2         -5.0686   -0.7374   -0.9433 H         1 <0>         0.0665
     20 H3         -4.1077    1.2799   -1.5960 H         1 <0>         0.0723
     21 H4         -4.2455    1.8895    0.0648 H         1 <0>         0.0723
     22 H5         -3.4271   -1.9764    0.6133 H         1 <0>         0.2445
     23 H6         -1.0931   -1.8889    0.5907 H         1 <0>         0.2512
     24 H7         -0.4443    1.6919    0.7180 H         1 <0>         0.0651
     25 H8          1.7547    2.6624    0.5138 H         1 <0>         0.0640
     26 H9          5.7216   -1.4436   -0.5445 H         1 <0>         0.0845
     27 H10         6.0035    1.0470   -0.2581 H         1 <0>         0.0845
@<TRIPOS>BOND
     1    1   11 1
     2    2    7 1
     3    2    9 1
     4    2   22 1
     5    3    9 1
     6    3   10 1
     7    3   23 1
     8    4    8 1
     9    4    9 2
    10    5   12 ar
    11    5   16 ar
    12    6   14 ar
    13    6   17 ar
    14    7    8 1
    15    7   18 1
    16    7   19 1
    17    8   20 1
    18    8   21 1
    19   10   11 ar
    20   10   13 ar
    21   11   12 ar
    22   12   14 ar
    23   13   15 ar
    24   13   24 1
    25   14   15 ar
    26   15   25 1
    27   16   17 ar
    28   16   26 1
    29   17   27 1
