@<TRIPOS>MOLECULE
DB00609
   21    21     0     0     0
SMALL
USER_CHARGES

@<TRIPOS>ATOM
      1 S1         -2.2801   -2.6747    0.6770 S.2       1 <0>        -0.0352
      2 N1          0.8280    1.6615   -0.1708 N.ar      1 <0>        -0.2599
      3 N2         -3.6696   -0.5701   -0.1566 N.pl3     1 <0>        -0.3518
      4 C1          2.3714   -0.1301   -0.6893 C.3       1 <0>        -0.0132
      5 C2          0.9917    0.3324   -0.3571 C.ar      1 <0>         0.0417
      6 C3         -0.0313   -0.5967   -0.2570 C.ar      1 <0>        -0.0310
      7 C4         -1.3044   -0.1320    0.0543 C.ar      1 <0>         0.0060
      8 C5          3.1848   -0.4682    0.5568 C.3       1 <0>        -0.0598
      9 C6         -1.5124    1.2283    0.2533 C.ar      1 <0>        -0.0341
     10 C7         -0.4232    2.0759    0.1304 C.ar      1 <0>         0.0285
     11 C8         -2.4136   -1.0645    0.1714 C.2       1 <0>         0.0769
     12 H1          2.3325   -1.0015   -1.3541 H         1 <0>         0.0326
     13 H2          2.8899    0.6570   -1.2507 H         1 <0>         0.0326
     14 H3          0.1796   -1.6452   -0.4382 H         1 <0>         0.0642
     15 H4          3.2743    0.4007    1.2177 H         1 <0>         0.0233
     16 H5          4.1930   -0.7881    0.2753 H         1 <0>         0.0233
     17 H6          2.7169   -1.2779    1.1269 H         1 <0>         0.0233
     18 H7         -2.4756    1.6470    0.5224 H         1 <0>         0.0639
     19 H8         -0.5310    3.1447    0.2819 H         1 <0>         0.0830
     20 H9         -3.8330    0.3682   -0.5056 H         1 <0>         0.1428
     21 H10        -4.4878   -1.1667   -0.0879 H         1 <0>         0.1428
@<TRIPOS>BOND
     1    1   11 2
     2    2    5 ar
     3    2   10 ar
     4    3   11 1
     5    3   20 1
     6    3   21 1
     7    4    5 1
     8    4    8 1
     9    4   12 1
    10    4   13 1
    11    5    6 ar
    12    6    7 ar
    13    6   14 1
    14    7    9 ar
    15    7   11 1
    16    8   15 1
    17    8   16 1
    18    8   17 1
    19    9   10 ar
    20    9   18 1
    21   10   19 1
