@<TRIPOS>MOLECULE
DB00848
   26    28     0     0     0
SMALL
USER_CHARGES

@<TRIPOS>ATOM
      1 S1          3.1774   -1.4201   -1.3739 S.3       1 <0>        -0.0892
      2 N1          2.0220    0.4098    0.0200 N.pl3     1 <0>        -0.3070
      3 N2          0.6307   -0.4392   -1.5924 N.2       1 <0>        -0.2537
      4 C1          0.7812    0.9898    0.4337 C.3       1 <0>         0.0405
      5 C2         -0.1095    0.6245   -0.7966 C.3       1 <0>         0.0939
      6 C3          3.1823    0.1583    0.8315 C.3       1 <0>         0.0234
      7 C4          1.8013   -0.4250   -1.0250 C.2       1 <0>         0.1526
      8 C5          4.1853   -0.5308   -0.1093 C.3       1 <0>         0.0167
      9 C6         -1.4988    0.1910   -0.3948 C.ar      1 <0>        -0.0216
     10 C7         -1.7643   -1.1552   -0.1409 C.ar      1 <0>        -0.0565
     11 C8         -2.5185    1.1362   -0.2762 C.ar      1 <0>        -0.0565
     12 C9         -3.0477   -1.5557    0.2306 C.ar      1 <0>        -0.0614
     13 C10        -3.8019    0.7356    0.0954 C.ar      1 <0>        -0.0614
     14 C11        -4.0664   -0.6104    0.3489 C.ar      1 <0>        -0.0617
     15 H1          0.8519    2.0729    0.5718 H         1 <0>         0.0489
     16 H2          0.4213    0.5283    1.3600 H         1 <0>         0.0489
     17 H3         -0.1843    1.4957   -1.4623 H         1 <0>         0.0611
     18 H4          2.9241   -0.5091    1.6621 H         1 <0>         0.0472
     19 H5          3.5990    1.0807    1.2475 H         1 <0>         0.0472
     20 H6          4.7927    0.2155   -0.6319 H         1 <0>         0.0396
     21 H7          4.8467   -1.2173    0.4256 H         1 <0>         0.0396
     22 H8         -0.9860   -1.9096   -0.2136 H         1 <0>         0.0621
     23 H9         -2.3243    2.1880   -0.4689 H         1 <0>         0.0621
     24 H10        -3.2534   -2.6032    0.4309 H         1 <0>         0.0618
     25 H11        -4.5952    1.4716    0.1884 H         1 <0>         0.0618
     26 H12        -5.0656   -0.9222    0.6391 H         1 <0>         0.0618
@<TRIPOS>BOND
     1    1    7 1
     2    1    8 1
     3    2    4 1
     4    2    6 1
     5    2    7 1
     6    3    5 1
     7    3    7 2
     8    4    5 1
     9    4   15 1
    10    4   16 1
    11    5    9 1
    12    5   17 1
    13    6    8 1
    14    6   18 1
    15    6   19 1
    16    8   20 1
    17    8   21 1
    18    9   10 ar
    19    9   11 ar
    20   10   12 ar
    21   10   22 1
    22   11   13 ar
    23   11   23 1
    24   12   14 ar
    25   12   24 1
    26   13   14 ar
    27   13   25 1
    28   14   26 1
