@<TRIPOS>MOLECULE
DB00458
   45    47     0     0     0
SMALL
USER_CHARGES

@<TRIPOS>ATOM
      1 N1          0.6145   -0.0484    0.5355 N.pl3     1 <0>        -0.2996
      2 N2         -3.7246   -0.0115   -0.0755 N.3       1 <0>        -0.3083
      3 C1         -0.8114   -0.2788    0.8180 C.3       1 <0>         0.0184
      4 C2          1.4518   -1.1896    0.3960 C.ar      1 <0>         0.0372
      5 C3          0.9952    1.3176    0.5850 C.ar      1 <0>         0.0372
      6 C4          3.3328    0.0009   -0.9677 C.3       1 <0>        -0.0219
      7 C5          2.3692    1.0435   -1.5104 C.3       1 <0>        -0.0219
      8 C6          2.7096   -1.1805   -0.2549 C.ar      1 <0>        -0.0257
      9 C7          1.8399    1.8837   -0.3842 C.ar      1 <0>        -0.0257
     10 C8         -1.4780   -1.0243   -0.3376 C.3       1 <0>        -0.0240
     11 C9         -2.9808   -1.2624   -0.1604 C.3       1 <0>        -0.0003
     12 C10         1.0504   -2.4221    0.9780 C.ar      1 <0>        -0.0401
     13 C11         0.5228    2.1595    1.6154 C.ar      1 <0>        -0.0401
     14 C12         3.5019   -2.3556   -0.2677 C.ar      1 <0>        -0.0568
     15 C13         2.1890    3.2443   -0.3151 C.ar      1 <0>        -0.0568
     16 C14         1.8377   -3.5756    0.9361 C.ar      1 <0>        -0.0600
     17 C15         0.8752    3.5089    1.6791 C.ar      1 <0>        -0.0600
     18 C16         3.0710   -3.5412    0.3149 C.ar      1 <0>        -0.0614
     19 C17         1.7089    4.0521    0.7117 C.ar      1 <0>        -0.0614
     20 C18        -5.1615   -0.2721    0.0292 C.3       1 <0>        -0.0130
     21 C19        -3.4457    0.8343   -1.2374 C.3       1 <0>        -0.0130
     22 H1         -0.9600   -0.7840    1.7797 H         1 <0>         0.0468
     23 H2         -1.3543    0.6684    0.9196 H         1 <0>         0.0468
     24 H3          4.0663    0.4625   -0.2934 H         1 <0>         0.0317
     25 H4          3.8931   -0.3810   -1.8322 H         1 <0>         0.0317
     26 H5          1.5399    0.5875   -2.0653 H         1 <0>         0.0317
     27 H6          2.9035    1.6793   -2.2278 H         1 <0>         0.0317
     28 H7         -1.0360   -2.0187   -0.4621 H         1 <0>         0.0293
     29 H8         -1.2589   -0.5234   -1.2888 H         1 <0>         0.0293
     30 H9         -3.1359   -1.8474    0.7548 H         1 <0>         0.0427
     31 H10        -3.3387   -1.8758   -0.9982 H         1 <0>         0.0427
     32 H11         0.1170   -2.5215    1.5257 H         1 <0>         0.0636
     33 H12        -0.1082    1.7652    2.4096 H         1 <0>         0.0636
     34 H13         4.4768   -2.3476   -0.7531 H         1 <0>         0.0621
     35 H14         2.8421    3.6829   -1.0657 H         1 <0>         0.0621
     36 H15         1.4863   -4.4903    1.4043 H         1 <0>         0.0618
     37 H16         0.5018    4.1298    2.4881 H         1 <0>         0.0618
     38 H17         3.6970   -4.4270    0.2834 H         1 <0>         0.0618
     39 H18         1.9872    5.1007    0.7561 H         1 <0>         0.0618
     40 H19        -5.3775   -0.8853    0.9112 H         1 <0>         0.0391
     41 H20        -5.5546   -0.7877   -0.8546 H         1 <0>         0.0391
     42 H21        -5.7148    0.6651    0.1574 H         1 <0>         0.0391
     43 H22        -4.1119    1.7059   -1.2403 H         1 <0>         0.0391
     44 H23        -3.5918    0.3042   -2.1857 H         1 <0>         0.0391
     45 H24        -2.4361    1.2556   -1.2107 H         1 <0>         0.0391
@<TRIPOS>BOND
     1    1    3 1
     2    1    4 1
     3    1    5 1
     4    2   11 1
     5    2   20 1
     6    2   21 1
     7    3   10 1
     8    3   22 1
     9    3   23 1
    10    4    8 ar
    11    4   12 ar
    12    5    9 ar
    13    5   13 ar
    14    6    7 1
    15    6    8 1
    16    6   24 1
    17    6   25 1
    18    7    9 1
    19    7   26 1
    20    7   27 1
    21    8   14 ar
    22    9   15 ar
    23   10   11 1
    24   10   28 1
    25   10   29 1
    26   11   30 1
    27   11   31 1
    28   12   16 ar
    29   12   32 1
    30   13   17 ar
    31   13   33 1
    32   14   18 ar
    33   14   34 1
    34   15   19 ar
    35   15   35 1
    36   16   18 ar
    37   16   36 1
    38   17   19 ar
    39   17   37 1
    40   18   38 1
    41   19   39 1
    42   20   40 1
    43   20   41 1
    44   20   42 1
    45   21   43 1
    46   21   44 1
    47   21   45 1
