@<TRIPOS>MOLECULE
DB00829
   33    35     0     0     0
SMALL
USER_CHARGES

@<TRIPOS>ATOM
      1 Cl1         0.3023    4.2911   -1.6634 Cl        1 <0>        -0.0835
      2 O1          2.3444   -3.2656    0.4073 O.2       1 <0>        -0.2732
      3 N1          2.3200   -0.9358    0.4473 N.am      1 <0>        -0.2723
      4 N2         -0.2464   -1.8918   -0.8648 N.2       1 <0>        -0.2734
      5 C1          0.4796    0.4376   -0.5523 C.ar      1 <0>         0.0233
      6 C2          1.7858    0.3084   -0.0359 C.ar      1 <0>         0.0452
      7 C3         -0.5124   -0.6782   -0.5173 C.2       1 <0>         0.0750
      8 C4          1.1023   -2.1872   -1.2999 C.3       1 <0>         0.1169
      9 C5          1.9635   -2.1899   -0.0621 C.2       1 <0>         0.2410
     10 C6         -1.8968   -0.3975   -0.0384 C.ar      1 <0>         0.0006
     11 C7          0.0354    1.6682   -1.0695 C.ar      1 <0>        -0.0324
     12 C8          2.5845    1.4684    0.0128 C.ar      1 <0>        -0.0383
     13 C9          3.3450   -0.8855    1.4899 C.3       1 <0>         0.0084
     14 C10         0.8592    2.7890   -1.0366 C.ar      1 <0>         0.0417
     15 C11         2.1287    2.6920   -0.4841 C.ar      1 <0>        -0.0416
     16 C12        -2.1079    0.6012    0.9043 C.ar      1 <0>        -0.0526
     17 C13        -2.9604   -1.1374   -0.5406 C.ar      1 <0>        -0.0526
     18 C14        -3.4026    0.8640    1.3520 C.ar      1 <0>        -0.0611
     19 C15        -4.2550   -0.8744   -0.0929 C.ar      1 <0>        -0.0611
     20 C16        -4.4760    0.1263    0.8534 C.ar      1 <0>        -0.0617
     21 H1          1.4831   -1.5039   -2.0670 H         1 <0>         0.0605
     22 H2          1.1240   -3.1895   -1.7420 H         1 <0>         0.0605
     23 H3         -0.9586    1.7561   -1.5041 H         1 <0>         0.0639
     24 H4          3.5980    1.4408    0.4053 H         1 <0>         0.0637
     25 H5          3.0866   -0.1315    2.2400 H         1 <0>         0.0433
     26 H6          4.3117   -0.6590    1.0298 H         1 <0>         0.0433
     27 H7          3.4328   -1.8497    1.9995 H         1 <0>         0.0433
     28 H8          2.7857    3.5570   -0.4418 H         1 <0>         0.0633
     29 H9         -1.2932    1.1719    1.3401 H         1 <0>         0.0624
     30 H10        -2.8141   -1.9153   -1.2845 H         1 <0>         0.0624
     31 H11        -3.5742    1.6379    2.0946 H         1 <0>         0.0618
     32 H12        -5.0914   -1.4477   -0.4822 H         1 <0>         0.0618
     33 H13        -5.4838    0.3300    1.2031 H         1 <0>         0.0618
@<TRIPOS>BOND
     1    1   14 1
     2    2    9 2
     3    3    6 1
     4    3    9 am
     5    3   13 1
     6    4    7 2
     7    4    8 1
     8    5    6 ar
     9    5    7 1
    10    5   11 ar
    11    6   12 ar
    12    7   10 1
    13    8    9 1
    14    8   21 1
    15    8   22 1
    16   10   16 ar
    17   10   17 ar
    18   11   14 ar
    19   11   23 1
    20   12   15 ar
    21   12   24 1
    22   13   25 1
    23   13   26 1
    24   13   27 1
    25   14   15 ar
    26   15   28 1
    27   16   18 ar
    28   16   29 1
    29   17   19 ar
    30   17   30 1
    31   18   20 ar
    32   18   31 1
    33   19   20 ar
    34   19   32 1
    35   20   33 1
