@<TRIPOS>MOLECULE
DB00317
   55    58     0     0     0
SMALL
USER_CHARGES

@<TRIPOS>ATOM
      1 Cl1         6.1312   -0.0994    2.5460 Cl        1 <0>        -0.0805
      2 F1          7.0699    0.6160   -0.1737 F         1 <0>        -0.2040
      3 O1          1.9675   -3.4650   -1.1328 O.3       1 <0>        -0.3772
      4 O2         -2.9769   -0.2779    0.5939 O.3       1 <0>        -0.4882
      5 O3         -4.5874    1.7258   -0.4613 O.3       1 <0>        -0.4914
      6 N1         -0.4412   -2.5941    0.1086 N.3       1 <0>        -0.2979
      7 N2          1.7021    1.6914    0.6821 N.pl3     1 <0>        -0.2988
      8 N3         -0.8058    4.5905   -0.8783 N.ar      1 <0>        -0.2352
      9 N4          1.3847    3.8491   -0.2007 N.ar      1 <0>        -0.2200
     10 C1         -1.5674   -2.7761    1.0220 C.3       1 <0>         0.0021
     11 C2          0.8333   -2.6231    0.8395 C.3       1 <0>         0.0224
     12 C3         -0.4455   -3.6267   -0.9372 C.3       1 <0>         0.0224
     13 C4         -2.8870   -2.6490    0.2675 C.3       1 <0>        -0.0058
     14 C5          1.9932   -2.4431   -0.1357 C.3       1 <0>         0.0604
     15 C6          0.7451   -3.4241   -1.8701 C.3       1 <0>         0.0604
     16 C7         -3.0179   -1.2886   -0.4040 C.3       1 <0>         0.0909
     17 C8         -2.4415    0.9301    0.2292 C.ar      1 <0>         0.1627
     18 C9         -0.5252    2.3834    0.0173 C.ar      1 <0>         0.0441
     19 C10        -1.0814    1.1473    0.3905 C.ar      1 <0>        -0.0038
     20 C11        -3.2495    1.9251   -0.2969 C.ar      1 <0>         0.1636
     21 C12        -1.3272    3.4047   -0.5179 C.ar      1 <0>         0.0797
     22 C13        -2.6888    3.1516   -0.6657 C.ar      1 <0>         0.0098
     23 C14         0.8299    2.6733    0.1497 C.ar      1 <0>         0.1340
     24 C15         3.0624    1.4174    0.4697 C.ar      1 <0>         0.0339
     25 C16         0.5215    4.7485   -0.6998 C.ar      1 <0>         0.1187
     26 C17        -5.4341    2.0788    0.6307 C.3       1 <0>         0.0790
     27 C18         3.8367    0.8598    1.4915 C.ar      1 <0>        -0.0194
     28 C19         3.6523    1.7006   -0.7660 C.ar      1 <0>        -0.0377
     29 C20         5.1884    0.5876    1.2799 C.ar      1 <0>         0.0778
     30 C21         5.0041    1.4289   -0.9774 C.ar      1 <0>        -0.0232
     31 C22         5.7722    0.8722    0.0453 C.ar      1 <0>         0.1417
     32 H1         -1.5257   -3.7567    1.5137 H         1 <0>         0.0428
     33 H2         -1.5293   -2.0238    1.8195 H         1 <0>         0.0428
     34 H3          0.8661   -1.8169    1.5814 H         1 <0>         0.0449
     35 H4          0.9468   -3.5778    1.3691 H         1 <0>         0.0449
     36 H5         -0.3922   -4.6271   -0.4884 H         1 <0>         0.0449
     37 H6         -1.3373   -3.5791   -1.5674 H         1 <0>         0.0449
     38 H7         -3.0510   -3.4575   -0.4507 H         1 <0>         0.0310
     39 H8         -3.6912   -2.7457    1.0091 H         1 <0>         0.0310
     40 H9          1.9642   -1.4598   -0.6205 H         1 <0>         0.0572
     41 H10         2.9457   -2.5213    0.3982 H         1 <0>         0.0572
     42 H11         0.7785   -4.2277   -2.6128 H         1 <0>         0.0572
     43 H12         0.6769   -2.4733   -2.4128 H         1 <0>         0.0572
     44 H13        -2.2449   -1.1394   -1.1678 H         1 <0>         0.0697
     45 H14        -3.9900   -1.2278   -0.9067 H         1 <0>         0.0697
     46 H15        -0.4741    0.3478    0.8035 H         1 <0>         0.0663
     47 H16        -3.3341    3.9255   -1.0791 H         1 <0>         0.0677
     48 H17         1.3260    1.2361    1.5093 H         1 <0>         0.1536
     49 H18         0.9354    5.7057   -0.9924 H         1 <0>         0.1048
     50 H19         3.3811    0.6376    2.4545 H         1 <0>         0.0652
     51 H20         3.0731    2.1209   -1.5838 H         1 <0>         0.0637
     52 H21        -6.4669    1.8567    0.3489 H         1 <0>         0.0660
     53 H22        -5.1803    1.4932    1.5199 H         1 <0>         0.0660
     54 H23        -5.3526    3.1484    0.8488 H         1 <0>         0.0660
     55 H24         5.4582    1.6472   -1.9394 H         1 <0>         0.0647
@<TRIPOS>BOND
     1    1   29 1
     2    2   31 1
     3    3   14 1
     4    3   15 1
     5    4   16 1
     6    4   17 1
     7    5   20 1
     8    5   26 1
     9    6   10 1
    10    6   11 1
    11    6   12 1
    12    7   23 1
    13    7   24 1
    14    7   48 1
    15    8   21 ar
    16    8   25 ar
    17    9   23 ar
    18    9   25 ar
    19   10   13 1
    20   10   32 1
    21   10   33 1
    22   11   14 1
    23   11   34 1
    24   11   35 1
    25   12   15 1
    26   12   36 1
    27   12   37 1
    28   13   16 1
    29   13   38 1
    30   13   39 1
    31   14   40 1
    32   14   41 1
    33   15   42 1
    34   15   43 1
    35   16   44 1
    36   16   45 1
    37   17   19 ar
    38   17   20 ar
    39   18   19 ar
    40   18   21 ar
    41   18   23 ar
    42   19   46 1
    43   20   22 ar
    44   21   22 ar
    45   22   47 1
    46   24   27 ar
    47   24   28 ar
    48   25   49 1
    49   26   52 1
    50   26   53 1
    51   26   54 1
    52   27   29 ar
    53   27   50 1
    54   28   30 ar
    55   28   51 1
    56   29   31 ar
    57   30   31 ar
    58   30   55 1
