@<TRIPOS>MOLECULE
DB00734
   57    61     0     0     0
SMALL
USER_CHARGES

@<TRIPOS>ATOM
      1 F1          9.9855    1.9853   -0.0732 F         1 <0>        -0.2054
      2 O1          6.8143   -1.4536    1.0445 O.3       1 <0>        -0.3543
      3 O2         -2.6452    1.6055    0.7856 O.2       1 <0>        -0.2673
      4 N1          0.8104   -1.0157   -0.1982 N.3       1 <0>        -0.3020
      5 N2         -4.7667    0.8350    0.2110 N.am      1 <0>        -0.2965
      6 N3          5.4413   -1.5646    0.8621 N.2       1 <0>        -0.0818
      7 N4         -5.1165   -1.4866   -0.0865 N.2       1 <0>        -0.2384
      8 C1          3.6310   -0.2153   -0.1022 C.3       1 <0>         0.0075
      9 C2          2.7176   -0.1709    1.1337 C.3       1 <0>        -0.0318
     10 C3          3.1011   -1.2528   -1.1053 C.3       1 <0>        -0.0318
     11 C4          1.2534    0.0291    0.7347 C.3       1 <0>        -0.0005
     12 C5          1.6227   -1.0136   -1.4224 C.3       1 <0>        -0.0005
     13 C6         -0.6053   -0.8435   -0.5238 C.3       1 <0>         0.0031
     14 C7          5.0841   -0.4356    0.2534 C.2       1 <0>         0.0945
     15 C8         -1.4398   -0.9026    0.7477 C.3       1 <0>        -0.0080
     16 C9         -2.8979   -0.7225    0.4397 C.2       1 <0>         0.0393
     17 C10         6.1634    0.4290    0.0206 C.ar      1 <0>         0.0447
     18 C11        -5.3235    2.1854    0.3392 C.3       1 <0>         0.0278
     19 C12        -6.6784    2.3784   -0.3159 C.3       1 <0>        -0.0344
     20 C13        -5.5586   -0.2692   -0.0485 C.2       1 <0>         0.1125
     21 C14        -7.5990    1.2520    0.1073 C.3       1 <0>        -0.0446
     22 C15        -7.0251   -0.0621   -0.3800 C.3       1 <0>         0.0058
     23 C16        -3.4070    0.6840    0.4943 C.2       1 <0>         0.2575
     24 C17        -3.7814   -1.6992    0.1556 C.2       1 <0>         0.0486
     25 C18         7.2425   -0.2633    0.5418 C.ar      1 <0>         0.1702
     26 C19         6.3766    1.6908   -0.5537 C.ar      1 <0>        -0.0464
     27 C20        -3.3888   -3.1492    0.0424 C.3       1 <0>        -0.0219
     28 C21         8.5520    0.2082    0.5394 C.ar      1 <0>         0.0192
     29 C22         7.6838    2.1970   -0.5732 C.ar      1 <0>        -0.0256
     30 C23         8.7498    1.4675   -0.0363 C.ar      1 <0>         0.1270
     31 H1          3.5580    0.7677   -0.5897 H         1 <0>         0.0366
     32 H2          3.0300    0.6429    1.8001 H         1 <0>         0.0284
     33 H3          2.8124   -1.1006    1.7110 H         1 <0>         0.0284
     34 H4          3.2250   -2.2682   -0.7054 H         1 <0>         0.0284
     35 H5          3.6850   -1.2098   -2.0331 H         1 <0>         0.0284
     36 H6          0.7171   -0.0013    1.6854 H         1 <0>         0.0427
     37 H7          1.1173    1.0297    0.3040 H         1 <0>         0.0427
     38 H8          1.5116   -0.0654   -1.9649 H         1 <0>         0.0427
     39 H9          1.2860   -1.8135   -2.0932 H         1 <0>         0.0427
     40 H10        -0.9222   -1.6439   -1.2043 H         1 <0>         0.0430
     41 H11        -0.7730    0.1080   -1.0464 H         1 <0>         0.0430
     42 H12        -1.2722   -1.8543    1.2679 H         1 <0>         0.0328
     43 H13        -1.1780   -0.1382    1.4829 H         1 <0>         0.0328
     44 H14        -4.6087    2.9087   -0.0708 H         1 <0>         0.0493
     45 H15        -5.3951    2.3907    1.4150 H         1 <0>         0.0493
     46 H16        -6.5705    2.3841   -1.4075 H         1 <0>         0.0282
     47 H17        -7.0993    3.3469   -0.0250 H         1 <0>         0.0282
     48 H18        -8.5996    1.4012   -0.3129 H         1 <0>         0.0270
     49 H19        -7.7012    1.2387    1.1992 H         1 <0>         0.0270
     50 H20        -7.1164   -0.1265   -1.4718 H         1 <0>         0.0343
     51 H21        -7.6036   -0.8959    0.0350 H         1 <0>         0.0343
     52 H22         5.5600    2.2691   -0.9744 H         1 <0>         0.0626
     53 H23        -2.3096   -3.3175    0.0336 H         1 <0>         0.0293
     54 H24        -3.7796   -3.5720   -0.8903 H         1 <0>         0.0293
     55 H25        -3.8126   -3.7172    0.8773 H         1 <0>         0.0293
     56 H26         9.3712   -0.3637    0.9577 H         1 <0>         0.0684
     57 H27         7.8715    3.1731   -1.0134 H         1 <0>         0.0646
@<TRIPOS>BOND
     1    1   30 1
     2    2    6 1
     3    2   25 1
     4    3   23 2
     5    4   11 1
     6    4   12 1
     7    4   13 1
     8    5   18 1
     9    5   20 1
    10    5   23 am
    11    6   14 2
    12    7   20 2
    13    7   24 1
    14    8    9 1
    15    8   10 1
    16    8   14 1
    17    8   31 1
    18    9   11 1
    19    9   32 1
    20    9   33 1
    21   10   12 1
    22   10   34 1
    23   10   35 1
    24   11   36 1
    25   11   37 1
    26   12   38 1
    27   12   39 1
    28   13   15 1
    29   13   40 1
    30   13   41 1
    31   14   17 1
    32   15   16 1
    33   15   42 1
    34   15   43 1
    35   16   23 1
    36   16   24 2
    37   17   25 ar
    38   17   26 ar
    39   18   19 1
    40   18   44 1
    41   18   45 1
    42   19   21 1
    43   19   46 1
    44   19   47 1
    45   20   22 1
    46   21   22 1
    47   21   48 1
    48   21   49 1
    49   22   50 1
    50   22   51 1
    51   24   27 1
    52   25   28 ar
    53   26   29 ar
    54   26   52 1
    55   27   53 1
    56   27   54 1
    57   27   55 1
    58   28   30 ar
    59   28   56 1
    60   29   30 ar
    61   29   57 1
