@<TRIPOS>MOLECULE
DB00769
   75    78     0     0     0
SMALL
USER_CHARGES

@<TRIPOS>ATOM
      1 O1         -0.4773   -1.4337    1.6985 O.3       1 <0>        -0.3804
      2 O2          2.2909    1.5852   -1.5310 O.3       1 <0>        -0.3915
      3 O3         -2.0496   -2.0763   -1.2810 O.2       1 <0>        -0.2907
      4 O4         -3.7394   -0.2384   -0.2881 O.3       1 <0>        -0.4559
      5 O5          8.3684    2.1767    2.0047 O.2       1 <0>        -0.2927
      6 O6         -4.3551    1.4205    1.1909 O.2       1 <0>        -0.2494
      7 N1         -6.9740    1.1125    0.2707 N.3       1 <0>        -0.2930
      8 C1          0.8300   -0.8611   -0.3037 C.3       1 <0>         0.0092
      9 C2          2.0478   -1.6499    0.2246 C.3       1 <0>        -0.0292
     10 C3          3.3963   -1.0973   -0.2611 C.3       1 <0>        -0.0314
     11 C4          3.5377    0.3829    0.2217 C.3       1 <0>        -0.0028
     12 C5         -0.3138   -1.7139    0.3115 C.3       1 <0>         0.1326
     13 C6          0.9526    0.5843    0.2206 C.3       1 <0>        -0.0179
     14 C7          4.9448    1.0158   -0.1348 C.3       1 <0>        -0.0049
     15 C8          2.2956    1.2518   -0.1501 C.3       1 <0>         0.0597
     16 C9          1.6910   -3.1014   -0.0853 C.3       1 <0>        -0.0463
     17 C10         0.1660   -3.1736    0.1391 C.3       1 <0>        -0.0161
     18 C11         4.5514   -1.9502    0.2865 C.3       1 <0>        -0.0459
     19 C12         0.7145   -0.8767   -1.8531 C.3       1 <0>        -0.0562
     20 C13         6.0566    0.0583    0.3151 C.2       1 <0>        -0.0600
     21 C14         5.9079   -1.3837   -0.1044 C.3       1 <0>        -0.0305
     22 C15         5.0699    2.3697    0.6230 C.3       1 <0>        -0.0366
     23 C16         5.1448    1.2670   -1.6466 C.3       1 <0>        -0.0555
     24 C17        -1.6596   -1.4505   -0.2963 C.2       1 <0>         0.2022
     25 C18         6.4946    2.8953    0.6981 C.3       1 <0>         0.0107
     26 C19         7.1413    0.4369    1.0115 C.2       1 <0>        -0.0194
     27 C20         7.3975    1.8626    1.3196 C.2       1 <0>         0.1561
     28 C21        -2.4975   -0.3794    0.3688 C.3       1 <0>         0.1531
     29 C22        -4.5952    0.7090    0.2249 C.2       1 <0>         0.3217
     30 C23        -5.8642    0.7285   -0.5904 C.3       1 <0>         0.0969
     31 C24        -7.4332   -0.0302    1.0634 C.3       1 <0>        -0.0034
     32 C25        -8.0795    1.6557   -0.5218 C.3       1 <0>        -0.0034
     33 C26        -8.5917    0.3581    1.9664 C.3       1 <0>        -0.0523
     34 C27        -8.5933    0.6328   -1.5207 C.3       1 <0>        -0.0523
     35 H1          2.0626   -1.5712    1.3245 H         1 <0>         0.0310
     36 H2          3.4412   -1.1371   -1.3543 H         1 <0>         0.0307
     37 H3          3.5112    0.3240    1.3230 H         1 <0>         0.0337
     38 H4          0.1290    1.1904   -0.1731 H         1 <0>         0.0297
     39 H5          0.8665    0.5988    1.3139 H         1 <0>         0.0297
     40 H6          2.3504    2.1995    0.3971 H         1 <0>         0.0596
     41 H7          2.2184   -3.8029    0.5694 H         1 <0>         0.0269
     42 H8          1.9396   -3.3633   -1.1197 H         1 <0>         0.0269
     43 H9         -0.0462   -3.7743    1.0311 H         1 <0>         0.0297
     44 H10        -0.2930   -3.6863   -0.7128 H         1 <0>         0.0297
     45 H11         4.4847   -2.0162    1.3805 H         1 <0>         0.0271
     46 H12         4.4767   -2.9746   -0.0967 H         1 <0>         0.0271
     47 H13         0.4858   -1.8713   -2.2492 H         1 <0>         0.0236
     48 H14        -0.0834   -0.2039   -2.1883 H         1 <0>         0.0236
     49 H15         1.6307   -0.5602   -2.3550 H         1 <0>         0.0236
     50 H16         6.0368   -1.4554   -1.1913 H         1 <0>         0.0310
     51 H17         6.6916   -2.0106    0.3386 H         1 <0>         0.0310
     52 H18         4.4387    3.1346    0.1550 H         1 <0>         0.0278
     53 H19         4.7002    2.2496    1.6511 H         1 <0>         0.0278
     54 H20         4.5921    2.1461   -1.9921 H         1 <0>         0.0238
     55 H21         6.1984    1.4556   -1.8871 H         1 <0>         0.0238
     56 H22         4.8290    0.4132   -2.2540 H         1 <0>         0.0238
     57 H23        -1.0368   -2.1273    2.0882 H         1 <0>         0.2108
     58 H24         6.8854    3.1572   -0.2902 H         1 <0>         0.0345
     59 H25         6.5135    3.7953    1.3224 H         1 <0>         0.0345
     60 H26         1.5301    2.1684   -1.6933 H         1 <0>         0.2098
     61 H27         7.9014   -0.2727    1.3204 H         1 <0>         0.0652
     62 H28        -2.6974   -0.6680    1.4053 H         1 <0>         0.0779
     63 H29        -1.9596    0.5709    0.3314 H         1 <0>         0.0779
     64 H30        -5.6893    1.4651   -1.3845 H         1 <0>         0.0542
     65 H31        -6.0141   -0.2532   -1.0560 H         1 <0>         0.0542
     66 H32        -7.6987   -0.9083    0.4635 H         1 <0>         0.0424
     67 H33        -6.6146   -0.3537    1.7190 H         1 <0>         0.0424
     68 H34        -8.8941    2.0410    0.0998 H         1 <0>         0.0424
     69 H35        -7.7224    2.5369   -1.0711 H         1 <0>         0.0424
     70 H36        -9.5356    0.4596    1.4223 H         1 <0>         0.0242
     71 H37        -8.7475   -0.4262    2.7159 H         1 <0>         0.0242
     72 H38        -8.3904    1.2879    2.5096 H         1 <0>         0.0242
     73 H39        -7.8314    0.2915   -2.2273 H         1 <0>         0.0242
     74 H40        -9.0575   -0.2380   -1.0499 H         1 <0>         0.0242
     75 H41        -9.3779    1.1017   -2.1271 H         1 <0>         0.0242
@<TRIPOS>BOND
     1    1   12 1
     2    1   57 1
     3    2   15 1
     4    2   60 1
     5    3   24 2
     6    4   28 1
     7    4   29 1
     8    5   27 2
     9    6   29 2
    10    7   30 1
    11    7   31 1
    12    7   32 1
    13    8    9 1
    14    8   12 1
    15    8   13 1
    16    8   19 1
    17    9   10 1
    18    9   16 1
    19    9   35 1
    20   10   11 1
    21   10   18 1
    22   10   36 1
    23   11   14 1
    24   11   15 1
    25   11   37 1
    26   12   17 1
    27   12   24 1
    28   13   15 1
    29   13   38 1
    30   13   39 1
    31   14   20 1
    32   14   22 1
    33   14   23 1
    34   15   40 1
    35   16   17 1
    36   16   41 1
    37   16   42 1
    38   17   43 1
    39   17   44 1
    40   18   21 1
    41   18   45 1
    42   18   46 1
    43   19   47 1
    44   19   48 1
    45   19   49 1
    46   20   21 1
    47   20   26 2
    48   21   50 1
    49   21   51 1
    50   22   25 1
    51   22   52 1
    52   22   53 1
    53   23   54 1
    54   23   55 1
    55   23   56 1
    56   24   28 1
    57   25   27 1
    58   25   58 1
    59   25   59 1
    60   26   27 1
    61   26   61 1
    62   28   62 1
    63   28   63 1
    64   29   30 1
    65   30   64 1
    66   30   65 1
    67   31   33 1
    68   31   66 1
    69   31   67 1
    70   32   34 1
    71   32   68 1
    72   32   69 1
    73   33   70 1
    74   33   71 1
    75   33   72 1
    76   34   73 1
    77   34   74 1
    78   34   75 1
