@<TRIPOS>MOLECULE
DB00162
   51    51     0     0     0
SMALL
USER_CHARGES

@<TRIPOS>ATOM
      1 O1          8.4578    1.3321    1.6571 O.3       1 <0>        -0.3910
      2 C1         -4.2163   -0.7424    0.4242 C.3       1 <0>        -0.0099
      3 C2         -5.5873   -0.0205    0.3137 C.3       1 <0>        -0.0436
      4 C3         -5.4825    1.4619    0.6236 C.3       1 <0>        -0.0486
      5 C4         -3.0881    0.0725   -0.2507 C.2       1 <0>        -0.0427
      6 C5         -4.5331    2.1336   -0.3569 C.3       1 <0>        -0.0314
      7 C6         -3.2534    1.3667   -0.6234 C.2       1 <0>        -0.0689
      8 C7         -4.4098   -2.1285   -0.2383 C.3       1 <0>        -0.0558
      9 C8         -3.8788   -0.9546    1.9178 C.3       1 <0>        -0.0558
     10 C9         -1.8301   -0.6313   -0.4374 C.2       1 <0>        -0.0579
     11 C10        -2.2278    2.2192   -1.3343 C.3       1 <0>        -0.0432
     12 C11        -0.6325   -0.0628   -0.2263 C.2       1 <0>        -0.0586
     13 C12         0.6803   -0.6973   -0.3896 C.2       1 <0>        -0.0504
     14 C13         0.6978   -2.1365   -0.8412 C.3       1 <0>        -0.0397
     15 C14         1.7824    0.0386   -0.1287 C.2       1 <0>        -0.0588
     16 C15         3.1700   -0.3756   -0.2219 C.2       1 <0>        -0.0613
     17 C16         4.1919    0.4497    0.0651 C.2       1 <0>        -0.0591
     18 C17         5.6217    0.1302    0.0026 C.2       1 <0>        -0.0522
     19 C18         6.0061   -1.2610   -0.4285 C.3       1 <0>        -0.0399
     20 C19         6.5107    1.0920    0.3289 C.2       1 <0>        -0.0560
     21 C20         8.0055    1.0155    0.3459 C.3       1 <0>         0.0629
     22 H1         -6.3196   -0.4822    0.9882 H         1 <0>         0.0274
     23 H2         -5.9912   -0.1361   -0.7019 H         1 <0>         0.0274
     24 H3         -5.1343    1.6168    1.6512 H         1 <0>         0.0269
     25 H4         -6.4713    1.9302    0.5557 H         1 <0>         0.0269
     26 H5         -4.2923    3.1310    0.0318 H         1 <0>         0.0310
     27 H6         -5.0496    2.2810   -1.3143 H         1 <0>         0.0310
     28 H7         -4.5138   -2.0398   -1.3259 H         1 <0>         0.0238
     29 H8         -3.5779   -2.8097   -0.0292 H         1 <0>         0.0238
     30 H9         -5.3139   -2.6198    0.1417 H         1 <0>         0.0238
     31 H10        -4.6953   -1.4677    2.4388 H         1 <0>         0.0238
     32 H11        -2.9797   -1.5694    2.0423 H         1 <0>         0.0238
     33 H12        -3.6969   -0.0058    2.4341 H         1 <0>         0.0238
     34 H13        -1.8911   -1.6495   -0.8036 H         1 <0>         0.0621
     35 H14        -2.7281    2.8871   -2.0463 H         1 <0>         0.0275
     36 H15        -1.5220    1.6434   -1.9382 H         1 <0>         0.0275
     37 H16        -1.6853    2.8472   -0.6208 H         1 <0>         0.0275
     38 H17        -0.5896    0.9471    0.1766 H         1 <0>         0.0620
     39 H18         1.7005   -2.5581   -0.9343 H         1 <0>         0.0278
     40 H19         0.1598   -2.7695   -0.1265 H         1 <0>         0.0278
     41 H20         0.2249   -2.2355   -1.8247 H         1 <0>         0.0278
     42 H21         1.6492    1.0731    0.1913 H         1 <0>         0.0620
     43 H22         3.3713   -1.3921   -0.5367 H         1 <0>         0.0618
     44 H23         3.9547    1.4664    0.3791 H         1 <0>         0.0620
     45 H24         5.5931   -2.0050    0.2618 H         1 <0>         0.0277
     46 H25         7.0845   -1.4282   -0.4586 H         1 <0>         0.0277
     47 H26         5.6299   -1.4691   -1.4364 H         1 <0>         0.0277
     48 H27         6.1289    2.0712    0.6212 H         1 <0>         0.0597
     49 H28         8.4169    1.7614   -0.3411 H         1 <0>         0.0601
     50 H29         8.4172    0.0446    0.0685 H         1 <0>         0.0601
     51 H30         8.1367    0.6352    2.2550 H         1 <0>         0.2098
@<TRIPOS>BOND
     1    1   21 1
     2    1   51 1
     3    2    3 1
     4    2    5 1
     5    2    8 1
     6    2    9 1
     7    3    4 1
     8    3   22 1
     9    3   23 1
    10    4    6 1
    11    4   24 1
    12    4   25 1
    13    5    7 2
    14    5   10 1
    15    6    7 1
    16    6   26 1
    17    6   27 1
    18    7   11 1
    19    8   28 1
    20    8   29 1
    21    8   30 1
    22    9   31 1
    23    9   32 1
    24    9   33 1
    25   10   12 2
    26   10   34 1
    27   11   35 1
    28   11   36 1
    29   11   37 1
    30   12   13 1
    31   12   38 1
    32   13   14 1
    33   13   15 2
    34   14   39 1
    35   14   40 1
    36   14   41 1
    37   15   16 1
    38   15   42 1
    39   16   17 2
    40   16   43 1
    41   17   18 1
    42   17   44 1
    43   18   19 1
    44   18   20 2
    45   19   45 1
    46   19   46 1
    47   19   47 1
    48   20   21 1
    49   20   48 1
    50   21   49 1
    51   21   50 1
