@<TRIPOS>MOLECULE
DB00960
   38    39     0     0     0
SMALL
USER_CHARGES

@<TRIPOS>ATOM
      1 O1         -1.0224    1.6867    0.7180 O.3       1 <0>        -0.4887
      2 O2          1.2449    3.2236    1.3445 O.3       1 <0>        -0.3872
      3 N1          1.8805    0.1492   -0.6177 N.3       1 <0>        -0.3112
      4 N2         -3.2477   -2.3959    0.5741 N.pl3     1 <0>        -0.3605
      5 C1          1.2057    2.3969    0.1778 C.3       1 <0>         0.1015
      6 C2          1.8209    1.0411    0.5324 C.3       1 <0>         0.0254
      7 C3          2.5207   -1.1112   -0.2670 C.3       1 <0>         0.0021
      8 C4         -0.2404    2.2967   -0.3024 C.3       1 <0>         0.1166
      9 C5         -2.2376   -0.4067    0.6041 C.2       1 <0>         0.0413
     10 C6         -2.1135    0.9660    0.3112 C.2       1 <0>         0.1297
     11 C7          3.9488   -0.8644    0.2109 C.3       1 <0>        -0.0499
     12 C8          2.5003   -2.0442   -1.4738 C.3       1 <0>        -0.0499
     13 C9         -3.3734   -1.0883    0.1617 C.2       1 <0>         0.0500
     14 C10        -1.4275   -1.3502    1.2960 C.2       1 <0>        -0.0332
     15 C11        -3.1276    1.6043   -0.4120 C.2       1 <0>        -0.0192
     16 C12        -4.3951   -0.4634   -0.5619 C.2       1 <0>        -0.0376
     17 C13        -2.0750   -2.5637    1.2606 C.2       1 <0>         0.0028
     18 C14        -4.2499    0.8985   -0.8411 C.2       1 <0>        -0.0563
     19 H1          1.8034    2.8957   -0.5945 H         1 <0>         0.0640
     20 H2          1.2637    0.5816    1.3576 H         1 <0>         0.0450
     21 H3          2.8185    1.2615    0.9275 H         1 <0>         0.0450
     22 H4          1.9565   -1.6038    0.5347 H         1 <0>         0.0455
     23 H5          2.3889    0.6018   -1.3772 H         1 <0>         0.1223
     24 H6         -0.2945    1.7317   -1.2413 H         1 <0>         0.0723
     25 H7         -0.6389    3.3034   -0.4746 H         1 <0>         0.0723
     26 H8          4.4991   -1.8114    0.2635 H         1 <0>         0.0245
     27 H9          4.5024   -0.2084   -0.4708 H         1 <0>         0.0245
     28 H10         3.9866   -0.4381    1.2181 H         1 <0>         0.0245
     29 H11         1.4738   -2.2247   -1.8124 H         1 <0>         0.0245
     30 H12         2.9404   -3.0148   -1.2210 H         1 <0>         0.0245
     31 H13         3.0661   -1.6277   -2.3149 H         1 <0>         0.0245
     32 H14        -0.4747   -1.1651    1.7721 H         1 <0>         0.0640
     33 H15        -3.0552    2.6646   -0.6414 H         1 <0>         0.0654
     34 H16         2.1778    3.3324    1.5965 H         1 <0>         0.2100
     35 H17        -3.9238   -3.1255    0.3958 H         1 <0>         0.1653
     36 H18        -5.2694   -1.0118   -0.8960 H         1 <0>         0.0638
     37 H19        -1.8060   -3.5303    1.6628 H         1 <0>         0.0807
     38 H20        -5.0266    1.4143   -1.4000 H         1 <0>         0.0619
@<TRIPOS>BOND
     1    1    8 1
     2    1   10 1
     3    2    5 1
     4    2   34 1
     5    3    6 1
     6    3    7 1
     7    3   23 1
     8    4   13 1
     9    4   17 2
    10    4   35 1
    11    5    6 1
    12    5    8 1
    13    5   19 1
    14    6   20 1
    15    6   21 1
    16    7   11 1
    17    7   12 1
    18    7   22 1
    19    8   24 1
    20    8   25 1
    21    9   10 1
    22    9   13 2
    23    9   14 2
    24   10   15 2
    25   11   26 1
    26   11   27 1
    27   11   28 1
    28   12   29 1
    29   12   30 1
    30   12   31 1
    31   13   16 1
    32   14   17 1
    33   14   32 1
    34   15   18 1
    35   15   33 1
    36   16   18 2
    37   16   36 1
    38   17   37 1
    39   18   38 1
