@<TRIPOS>MOLECULE
DB00807
   47    47     0     0     0
SMALL
USER_CHARGES

@<TRIPOS>ATOM
      1 O1          1.1550   -0.7169    0.1369 O.3       1 <0>        -0.4599
      2 O2         -4.9566   -0.0257   -1.0066 O.3       1 <0>        -0.4901
      3 O3          0.5516   -2.9191    0.4294 O.2       1 <0>        -0.2450
      4 N1          4.7445   -0.0398    0.6300 N.3       1 <0>        -0.2996
      5 N2         -2.8582    1.8490   -0.9894 N.pl3     1 <0>        -0.3551
      6 C1          3.3402    0.2367    0.3296 C.3       1 <0>         0.0332
      7 C2          5.4105   -0.6249   -0.5331 C.3       1 <0>        -0.0038
      8 C3          5.4280    1.1835    1.0488 C.3       1 <0>        -0.0038
      9 C4          2.5116   -1.0348    0.4188 C.3       1 <0>         0.1054
     10 C5          6.8552   -0.9755   -0.2196 C.3       1 <0>        -0.0524
     11 C6          5.4313    2.2186   -0.0633 C.3       1 <0>        -0.0524
     12 C7         -1.0997   -1.2947   -0.1358 C.ar      1 <0>         0.0610
     13 C8          0.2764   -1.7564    0.1764 C.2       1 <0>         0.3393
     14 C9         -3.6859   -0.4284   -0.7223 C.ar      1 <0>         0.1411
     15 C10        -2.6310    0.4842   -0.7084 C.ar      1 <0>         0.0676
     16 C11        -1.3380    0.0510   -0.4151 C.ar      1 <0>        -0.0235
     17 C12        -2.1547   -2.2073   -0.1497 C.ar      1 <0>        -0.0442
     18 C13        -5.9442   -0.2409   -0.0008 C.3       1 <0>         0.0894
     19 C14        -3.4477   -1.7743   -0.4428 C.ar      1 <0>        -0.0173
     20 C15        -7.0172    0.8295   -0.1281 C.3       1 <0>        -0.0215
     21 C16        -8.0996    0.6723    0.9247 C.3       1 <0>        -0.0622
     22 H1          3.1936    0.6972   -0.6564 H         1 <0>         0.0460
     23 H2          2.9159    0.9441    1.0555 H         1 <0>         0.0460
     24 H3          4.9230   -1.5729   -0.7881 H         1 <0>         0.0424
     25 H4          5.3510   -0.0119   -1.4393 H         1 <0>         0.0424
     26 H5          4.9177    1.6015    1.9264 H         1 <0>         0.0424
     27 H6          6.4474    0.9873    1.3976 H         1 <0>         0.0424
     28 H7          2.8466   -1.7840   -0.3061 H         1 <0>         0.0710
     29 H8          2.5811   -1.4607    1.4274 H         1 <0>         0.0710
     30 H9          7.5015   -0.0939   -0.1726 H         1 <0>         0.0242
     31 H10         6.9429   -1.5299    0.7210 H         1 <0>         0.0242
     32 H11         7.2568   -1.6165   -1.0127 H         1 <0>         0.0242
     33 H12         4.4316    2.4935   -0.4109 H         1 <0>         0.0242
     34 H13         6.0417    1.9298   -0.9233 H         1 <0>         0.0242
     35 H14         5.8793    3.1421    0.3238 H         1 <0>         0.0242
     36 H15        -0.5367    0.7857   -0.4118 H         1 <0>         0.0645
     37 H16        -1.9898   -3.2602    0.0633 H         1 <0>         0.0627
     38 H17        -6.3830   -1.2350   -0.1434 H         1 <0>         0.0696
     39 H18        -5.4957   -0.1949    1.0002 H         1 <0>         0.0696
     40 H19        -4.2574   -2.4987   -0.4585 H         1 <0>         0.0655
     41 H20        -6.5581    1.8219   -0.0437 H         1 <0>         0.0295
     42 H21        -7.4619    0.7877   -1.1296 H         1 <0>         0.0295
     43 H22        -8.5960   -0.2993    0.8349 H         1 <0>         0.0231
     44 H23        -7.6812    0.7528    1.9330 H         1 <0>         0.0231
     45 H24        -8.8578    1.4530    0.8087 H         1 <0>         0.0231
     46 H25        -3.7946    2.1695   -1.1986 H         1 <0>         0.1424
     47 H26        -2.0894    2.5059   -0.9764 H         1 <0>         0.1424
@<TRIPOS>BOND
     1    1    9 1
     2    1   13 1
     3    2   14 1
     4    2   18 1
     5    3   13 2
     6    4    6 1
     7    4    7 1
     8    4    8 1
     9    5   15 1
    10    5   46 1
    11    5   47 1
    12    6    9 1
    13    6   22 1
    14    6   23 1
    15    7   10 1
    16    7   24 1
    17    7   25 1
    18    8   11 1
    19    8   26 1
    20    8   27 1
    21    9   28 1
    22    9   29 1
    23   10   30 1
    24   10   31 1
    25   10   32 1
    26   11   33 1
    27   11   34 1
    28   11   35 1
    29   12   13 1
    30   12   16 ar
    31   12   17 ar
    32   14   15 ar
    33   14   19 ar
    34   15   16 ar
    35   16   36 1
    36   17   19 ar
    37   17   37 1
    38   18   20 1
    39   18   38 1
    40   18   39 1
    41   19   40 1
    42   20   21 1
    43   20   41 1
    44   20   42 1
    45   21   43 1
    46   21   44 1
    47   21   45 1
