@<TRIPOS>MOLECULE
DB00442
   35    37     0     0     0
SMALL
USER_CHARGES

@<TRIPOS>ATOM
      1 O1          2.3884    2.5619    0.6596 O.3       1 <0>        -0.3910
      2 O2          3.6521   -1.6465   -1.1858 O.3       1 <0>        -0.3943
      3 O3         -4.6294   -2.8093    0.5763 O.2       1 <0>        -0.2633
      4 N1         -0.7123   -0.5655    0.3663 N.pl3     1 <0>        -0.3090
      5 N2         -2.7244    0.7046   -0.1358 N.pl3     1 <0>        -0.3122
      6 N3         -1.7000   -2.5378    0.7739 N.2       1 <0>        -0.2286
      7 N4         -4.7565   -0.5678    0.0007 N.2       1 <0>        -0.1756
      8 N5         -4.7550    1.7180   -0.5742 N.pl3     1 <0>        -0.3289
      9 C1          0.3521    0.4282    0.2133 C.3       1 <0>         0.0607
     10 C2          2.7908    0.3777   -0.2846 C.3       1 <0>         0.0310
     11 C3          2.5068    1.1804    0.9931 C.3       1 <0>         0.0660
     12 C4          1.1656    0.6523    1.4970 C.3       1 <0>        -0.0014
     13 C5          1.4017    0.1019   -0.8268 C.2       1 <0>        -0.0462
     14 C6          3.5483   -0.9148    0.0132 C.3       1 <0>         0.0531
     15 C7         -2.0435   -0.3932    0.2028 C.2       1 <0>         0.1468
     16 C8          1.1539   -0.3075   -2.0785 C.2       1 <0>        -0.0971
     17 C9         -0.5503   -1.8872    0.7135 C.cat     1 <0>         0.0989
     18 C10        -2.6367   -1.5963    0.4522 C.2       1 <0>         0.1720
     19 C11        -4.0759   -1.7386    0.3575 C.2       1 <0>         0.3021
     20 C12        -4.1076    0.5599   -0.2249 C.2       1 <0>         0.1952
     21 H1         -0.1187    1.3781   -0.0687 H         1 <0>         0.0576
     22 H2          3.3489    0.9780   -1.0146 H         1 <0>         0.0394
     23 H3          3.2912    1.0840    1.7504 H         1 <0>         0.0601
     24 H4          0.6591    1.3656    2.1565 H         1 <0>         0.0313
     25 H5          1.3139   -0.2793    2.0552 H         1 <0>         0.0313
     26 H6          3.0283   -1.5376    0.7484 H         1 <0>         0.0564
     27 H7          4.5530   -0.7067    0.3952 H         1 <0>         0.0564
     28 H8          0.1380   -0.4591   -2.4273 H         1 <0>         0.0535
     29 H9          1.9534   -0.4791   -2.7904 H         1 <0>         0.0535
     30 H10         3.2534    2.8558    0.3268 H         1 <0>         0.2098
     31 H11         0.4217   -2.3209    0.9070 H         1 <0>         0.1029
     32 H12        -2.2907    1.6022   -0.3236 H         1 <0>         0.1700
     33 H13         4.1901   -1.1255   -1.8062 H         1 <0>         0.2094
     34 H14        -4.2457    2.5782   -0.7450 H         1 <0>         0.1451
     35 H15        -5.7640    1.7458   -0.6723 H         1 <0>         0.1451
@<TRIPOS>BOND
     1    1   11 1
     2    1   30 1
     3    2   14 1
     4    2   33 1
     5    3   19 2
     6    4    9 1
     7    4   15 1
     8    4   17 2
     9    5   15 2
    10    5   20 1
    11    5   32 1
    12    6   17 1
    13    6   18 2
    14    7   19 1
    15    7   20 2
    16    8   20 1
    17    8   34 1
    18    8   35 1
    19    9   12 1
    20    9   13 1
    21    9   21 1
    22   10   11 1
    23   10   13 1
    24   10   14 1
    25   10   22 1
    26   11   12 1
    27   11   23 1
    28   12   24 1
    29   12   25 1
    30   13   16 2
    31   14   26 1
    32   14   27 1
    33   15   18 1
    34   16   28 1
    35   16   29 1
    36   17   31 1
    37   18   19 1
