@<TRIPOS>MOLECULE
DB00583
   26    25     0     0     0
SMALL
USER_CHARGES

@<TRIPOS>ATOM
      1 O1         -1.0060   -1.1704   -1.0007 O.3       1 <0>        -0.3862
      2 O2         -3.9967    1.6627    0.1280 O.co2     1 <0>        -0.5497
      3 O3         -2.7400    0.8604   -1.6008 O.co2     1 <0>        -0.5497
      4 N1          1.2852    0.1325    0.0200 N.4       1 <0>         0.2387
      5 C1         -0.1274    0.5976    0.3433 C.3       1 <0>        -0.0039
      6 C2         -1.1146   -0.5669    0.2889 C.3       1 <0>         0.0999
      7 C3          1.7090   -0.9346    1.0189 C.3       1 <0>        -0.0417
      8 C4          1.3187   -0.4474   -1.3867 C.3       1 <0>        -0.0417
      9 C5          2.2404    1.3142    0.1045 C.3       1 <0>        -0.0417
     10 C6         -2.5653   -0.1573    0.5494 C.3       1 <0>         0.0179
     11 C7         -3.1519    0.8889   -0.4091 C.2       1 <0>         0.0444
     12 H1         -0.3717    1.3748   -0.3900 H         1 <0>         0.0840
     13 H2         -0.1115    1.0515    1.3413 H         1 <0>         0.0840
     14 H3         -0.8645   -1.3285    1.0337 H         1 <0>         0.0650
     15 H4          1.1534   -1.8595    0.8472 H         1 <0>         0.0778
     16 H5          2.7750   -1.1332    0.8672 H         1 <0>         0.0778
     17 H6          1.5412   -0.5536    2.0306 H         1 <0>         0.0778
     18 H7          2.3526   -0.3686   -1.7446 H         1 <0>         0.0778
     19 H8          1.0930   -1.5169   -1.3795 H         1 <0>         0.0778
     20 H9          0.6899    0.1496   -2.0543 H         1 <0>         0.0778
     21 H10         1.9320    2.0605   -0.6338 H         1 <0>         0.0778
     22 H11         2.1872    1.7294    1.1153 H         1 <0>         0.0778
     23 H12         3.2550    0.9634   -0.1074 H         1 <0>         0.0778
     24 H13        -3.2125   -1.0396    0.4656 H         1 <0>         0.0352
     25 H14        -2.6509    0.2154    1.5776 H         1 <0>         0.0352
     26 H15        -1.6195   -1.9243   -1.0244 H         1 <0>         0.2100
@<TRIPOS>BOND
     1    1    6 1
     2    1   26 1
     3    2   11 2
     4    3   11 1
     5    4    5 1
     6    4    7 1
     7    4    8 1
     8    4    9 1
     9    5    6 1
    10    5   12 1
    11    5   13 1
    12    6   10 1
    13    6   14 1
    14    7   15 1
    15    7   16 1
    16    7   17 1
    17    8   18 1
    18    8   19 1
    19    8   20 1
    20    9   21 1
    21    9   22 1
    22    9   23 1
    23   10   11 1
    24   10   24 1
    25   10   25 1
