@<TRIPOS>MOLECULE
DB00879
   26    27     0     0     0
SMALL
USER_CHARGES

@<TRIPOS>ATOM
      1 S1          2.9256   -1.2675    0.8587 S.3       1 <0>        -0.1230
      2 F1         -2.6912    2.4625    0.2924 F         1 <0>        -0.2004
      3 O1          1.3843    0.1063   -0.8050 O.3       1 <0>        -0.3397
      4 O2          3.0536    1.7840    0.6579 O.3       1 <0>        -0.3916
      5 O3         -1.5422   -2.6910   -0.5858 O.2       1 <0>        -0.2444
      6 N1         -0.7722   -0.5488   -0.2086 N.am      1 <0>        -0.2690
      7 N2         -3.1136   -1.0723   -0.3238 N.2       1 <0>        -0.1754
      8 N3         -4.7161    0.5967   -0.0526 N.pl3     1 <0>        -0.3407
      9 C1          0.6005   -0.9649   -0.2670 C.3       1 <0>         0.1499
     10 C2          1.1441   -1.2965    1.1148 C.3       1 <0>         0.0418
     11 C3          2.7677   -0.2194   -0.6117 C.3       1 <0>         0.1297
     12 C4          3.5561    1.0683   -0.4589 C.3       1 <0>         0.0798
     13 C5         -1.0715    0.7754    0.0173 C.2       1 <0>         0.0505
     14 C6         -1.7958   -1.5018   -0.3836 C.2       1 <0>         0.3523
     15 C7         -2.3329    1.1858    0.0754 C.2       1 <0>         0.1790
     16 C8         -3.4059    0.1848   -0.1095 C.2       1 <0>         0.1586
     17 H1          0.6939   -1.8278   -0.9406 H         1 <0>         0.0848
     18 H2          0.8932   -0.5275    1.8527 H         1 <0>         0.0421
     19 H3          0.7938   -2.2646    1.4829 H         1 <0>         0.0421
     20 H4          3.1171   -0.7763   -1.4874 H         1 <0>         0.0736
     21 H5          3.4197    1.7055   -1.3383 H         1 <0>         0.0592
     22 H6          4.6277    0.8899   -0.3229 H         1 <0>         0.0592
     23 H7         -0.2593    1.4766    0.1658 H         1 <0>         0.0842
     24 H8          3.1662    1.2199    1.4419 H         1 <0>         0.2095
     25 H9         -5.4763   -0.0636   -0.1756 H         1 <0>         0.1438
     26 H10        -4.9665    1.5663    0.1117 H         1 <0>         0.1438
@<TRIPOS>BOND
     1    1   10 1
     2    1   11 1
     3    2   15 1
     4    3    9 1
     5    3   11 1
     6    4   12 1
     7    4   24 1
     8    5   14 2
     9    6    9 1
    10    6   13 1
    11    6   14 am
    12    7   14 1
    13    7   16 2
    14    8   16 1
    15    8   25 1
    16    8   26 1
    17    9   10 1
    18    9   17 1
    19   10   18 1
    20   10   19 1
    21   11   12 1
    22   11   20 1
    23   12   21 1
    24   12   22 1
    25   13   15 2
    26   13   23 1
    27   15   16 1
