@<TRIPOS>MOLECULE
DB00292
   34    35     0     0     0
SMALL
USER_CHARGES

@<TRIPOS>ATOM
      1 O1          3.0734   -0.0031    0.2067 O.3       1 <0>        -0.4604
      2 O2          1.7998    0.5456   -1.6306 O.2       1 <0>        -0.2432
      3 N1         -0.2707    1.2417    0.4517 N.pl3     1 <0>        -0.3178
      4 N2          0.1806    2.1262    2.3948 N.2       1 <0>        -0.2432
      5 C1         -1.0835    0.7830   -0.7038 C.3       1 <0>         0.0582
      6 C2         -2.0397   -0.2916   -0.3094 C.ar      1 <0>        -0.0249
      7 C3         -1.6667    1.9967   -1.4656 C.3       1 <0>        -0.0400
      8 C4          1.0619    1.1279    0.5607 C.cat     1 <0>         0.1468
      9 C5         -0.7789    1.8348    1.5448 C.cat     1 <0>         0.0970
     10 C6         -1.6028   -1.6127   -0.2123 C.ar      1 <0>        -0.0566
     11 C7         -3.3708    0.0246   -0.0372 C.ar      1 <0>        -0.0566
     12 C8          1.3307    1.6886    1.7872 C.2       1 <0>         0.0598
     13 C9          1.9628    0.5568   -0.3874 C.2       1 <0>         0.3574
     14 C10        -2.4969   -2.6178    0.1566 C.ar      1 <0>        -0.0614
     15 C11        -4.2648   -0.9805    0.3319 C.ar      1 <0>        -0.0614
     16 C12        -3.8279   -2.3017    0.4288 C.ar      1 <0>        -0.0617
     17 C13         4.0545   -0.6085   -0.6422 C.3       1 <0>         0.0900
     18 C14         5.1777   -1.1543    0.2135 C.3       1 <0>        -0.0306
     19 H1         -0.4054    0.3151   -1.4201 H         1 <0>         0.0575
     20 H2         -2.3113    2.6163   -0.8331 H         1 <0>         0.0253
     21 H3         -2.2510    1.6690   -2.3324 H         1 <0>         0.0253
     22 H4         -0.8576    2.6416   -1.8274 H         1 <0>         0.0253
     23 H5         -1.8291    2.0442    1.6957 H         1 <0>         0.1029
     24 H6         -0.5683   -1.8739   -0.4196 H         1 <0>         0.0621
     25 H7         -3.7419    1.0431   -0.0924 H         1 <0>         0.0621
     26 H8          2.2915    1.8039    2.2687 H         1 <0>         0.0853
     27 H9         -2.1566   -3.6464    0.2327 H         1 <0>         0.0618
     28 H10        -5.3008   -0.7345    0.5466 H         1 <0>         0.0618
     29 H11        -4.5238   -3.0840    0.7170 H         1 <0>         0.0618
     30 H12         3.5896   -1.4216   -1.2103 H         1 <0>         0.0695
     31 H13         4.4458    0.1427   -1.3366 H         1 <0>         0.0695
     32 H14         5.9471   -1.6250   -0.4048 H         1 <0>         0.0262
     33 H15         5.6377   -0.3535    0.8018 H         1 <0>         0.0262
     34 H16         4.7954   -1.8927    0.9259 H         1 <0>         0.0262
@<TRIPOS>BOND
     1    1   13 1
     2    1   17 1
     3    2   13 2
     4    3    5 1
     5    3    8 1
     6    3    9 2
     7    4    9 1
     8    4   12 2
     9    5    6 1
    10    5    7 1
    11    5   19 1
    12    6   10 ar
    13    6   11 ar
    14    7   20 1
    15    7   21 1
    16    7   22 1
    17    8   12 1
    18    8   13 1
    19    9   23 1
    20   10   14 ar
    21   10   24 1
    22   11   15 ar
    23   11   25 1
    24   12   26 1
    25   14   16 ar
    26   14   27 1
    27   15   16 ar
    28   15   28 1
    29   16   29 1
    30   17   18 1
    31   17   30 1
    32   17   31 1
    33   18   32 1
    34   18   33 1
    35   18   34 1
