@<TRIPOS>MOLECULE
DB00575
   23    24     0     0     0
SMALL
USER_CHARGES

@<TRIPOS>ATOM
      1 Cl1        -1.0623   -2.7286   -0.5502 Cl        1 <0>        -0.0801
      2 Cl2        -1.0683    2.7309   -0.5510 Cl        1 <0>        -0.0801
      3 N1          2.4747    0.0007   -0.9451 N.pl3     1 <0>        -0.2350
      4 N2          0.1497    0.0023   -0.9969 N.pl3     1 <0>        -0.2037
      5 N3          1.3897    0.0025    1.0482 N.2       1 <0>        -0.1140
      6 C1          3.5823   -0.0023   -0.0389 C.3       1 <0>         0.0920
      7 C2          2.8602    0.0025    1.3145 C.3       1 <0>         0.1328
      8 C3          1.2965    0.0023   -0.2602 C.2       1 <0>         0.3695
      9 C4         -1.1636    0.0009   -0.5145 C.ar      1 <0>         0.1283
     10 C5         -1.8329   -1.2077   -0.2678 C.ar      1 <0>         0.0787
     11 C6         -1.8355    1.2083   -0.2683 C.ar      1 <0>         0.0787
     12 C7         -3.1423   -1.2091    0.2133 C.ar      1 <0>        -0.0401
     13 C8         -3.1449    1.2067    0.2128 C.ar      1 <0>        -0.0401
     14 C9         -3.7981   -0.0019    0.4536 C.ar      1 <0>        -0.0588
     15 H1          4.2060    0.8876   -0.1648 H         1 <0>         0.0665
     16 H2          4.1984   -0.8976   -0.1621 H         1 <0>         0.0665
     17 H3          3.1239   -0.8829    1.9026 H         1 <0>         0.0723
     18 H4          3.1245    0.8916    1.8968 H         1 <0>         0.0723
     19 H5          2.5732   -0.0014   -1.9526 H         1 <0>         0.2445
     20 H6          0.2229    0.0017   -2.0097 H         1 <0>         0.2513
     21 H7         -3.6658   -2.1420    0.4064 H         1 <0>         0.0633
     22 H8         -3.6706    2.1385    0.4055 H         1 <0>         0.0633
     23 H9         -4.8176   -0.0029    0.8283 H         1 <0>         0.0618
@<TRIPOS>BOND
     1    1   10 1
     2    2   11 1
     3    3    6 1
     4    3    8 1
     5    3   19 1
     6    4    8 1
     7    4    9 1
     8    4   20 1
     9    5    7 1
    10    5    8 2
    11    6    7 1
    12    6   15 1
    13    6   16 1
    14    7   17 1
    15    7   18 1
    16    9   10 ar
    17    9   11 ar
    18   10   12 ar
    19   11   13 ar
    20   12   14 ar
    21   12   21 1
    22   13   14 ar
    23   13   22 1
    24   14   23 1
