@<TRIPOS>MOLECULE
DB00205
   30    31     0     0     0
SMALL
USER_CHARGES

@<TRIPOS>ATOM
      1 Cl1        -5.4990   -0.2832    0.0332 Cl        1 <0>        -0.0835
      2 N1          2.5655    0.6367    0.3961 N.ar      1 <0>        -0.2190
      3 N2          2.5146   -1.6764   -0.2782 N.ar      1 <0>        -0.1995
      4 N3          0.4537   -2.7829   -0.6246 N.pl3     1 <0>        -0.3425
      5 N4          4.5529   -0.5672    0.0691 N.pl3     1 <0>        -0.3274
      6 C1          0.4555   -0.4708    0.0486 C.ar      1 <0>         0.0430
      7 C2          1.2164    0.6328    0.3790 C.ar      1 <0>         0.0556
      8 C3          0.5706    1.9292    0.7488 C.3       1 <0>        -0.0124
      9 C4         -0.9906   -0.4262    0.0447 C.ar      1 <0>        -0.0128
     10 C5          1.1671   -1.6091   -0.2746 C.ar      1 <0>         0.1293
     11 C6         -1.6739   -0.0673   -1.1171 C.ar      1 <0>        -0.0525
     12 C7         -1.7014   -0.7416    1.2028 C.ar      1 <0>        -0.0525
     13 C8          0.3382    2.8227   -0.4665 C.3       1 <0>        -0.0598
     14 C9          3.1413   -0.5341    0.0621 C.ar      1 <0>         0.2145
     15 C10        -3.0682   -0.0232   -1.1207 C.ar      1 <0>        -0.0428
     16 C11        -3.0956   -0.6976    1.1989 C.ar      1 <0>        -0.0428
     17 C12        -3.7790   -0.3385    0.0374 C.ar      1 <0>         0.0410
     18 H1         -0.3633    1.7895    1.3024 H         1 <0>         0.0326
     19 H2          1.2327    2.4624    1.4439 H         1 <0>         0.0326
     20 H3         -1.1362    0.1741   -2.0310 H         1 <0>         0.0624
     21 H4         -1.1840   -1.0233    2.1170 H         1 <0>         0.0624
     22 H5          1.2806    3.0348   -0.9834 H         1 <0>         0.0233
     23 H6         -0.0940    3.7778   -0.1508 H         1 <0>         0.0233
     24 H7         -0.3429    2.3715   -1.1913 H         1 <0>         0.0233
     25 H8         -3.5873    0.2568   -2.0337 H         1 <0>         0.0632
     26 H9         -3.6364   -0.9456    2.1088 H         1 <0>         0.0632
     27 H10        -0.4495   -2.9511   -0.1998 H         1 <0>         0.1437
     28 H11         1.0128   -3.5931   -0.8638 H         1 <0>         0.1437
     29 H12         5.0682    0.2659    0.3175 H         1 <0>         0.1452
     30 H13         5.0312   -1.4234   -0.1749 H         1 <0>         0.1452
@<TRIPOS>BOND
     1    1   17 1
     2    2    7 ar
     3    2   14 ar
     4    3   10 ar
     5    3   14 ar
     6    4   10 1
     7    4   27 1
     8    4   28 1
     9    5   14 1
    10    5   29 1
    11    5   30 1
    12    6    7 ar
    13    6    9 1
    14    6   10 ar
    15    7    8 1
    16    8   13 1
    17    8   18 1
    18    8   19 1
    19    9   11 ar
    20    9   12 ar
    21   11   15 ar
    22   11   20 1
    23   12   16 ar
    24   12   21 1
    25   13   22 1
    26   13   23 1
    27   13   24 1
    28   15   17 ar
    29   15   25 1
    30   16   17 ar
    31   16   26 1
