@<TRIPOS>MOLECULE
DB00937
   34    34     0     0     0
SMALL
USER_CHARGES

@<TRIPOS>ATOM
      1 O1          0.6314    1.1475    2.4565 O.2       1 <0>        -0.2904
      2 N1         -0.9994    0.0455   -0.2873 N.3       1 <0>        -0.2933
      3 C1         -0.7676   -0.2906    1.1170 C.3       1 <0>         0.0708
      4 C2         -1.0656    1.4959   -0.4616 C.3       1 <0>        -0.0033
      5 C3         -2.2292   -0.5838   -0.7672 C.3       1 <0>        -0.0033
      6 C4          0.5566    0.3455    1.5259 C.2       1 <0>         0.1799
      7 C5         -1.9030    0.2618    1.9687 C.3       1 <0>        -0.0422
      8 C6         -1.2421    1.8629   -1.8993 C.3       1 <0>        -0.0523
      9 C7         -2.1820   -2.0678   -0.5981 C.3       1 <0>        -0.0523
     10 C8          1.7998    0.0064    0.7723 C.ar      1 <0>         0.0190
     11 C9          1.9017   -1.2389    0.1961 C.ar      1 <0>        -0.0512
     12 C10         2.7951    0.9522    0.6837 C.ar      1 <0>        -0.0512
     13 C11         3.0636   -1.5559   -0.5078 C.ar      1 <0>        -0.0611
     14 C12         3.9568    0.6352   -0.0202 C.ar      1 <0>        -0.0611
     15 C13         4.0910   -0.6188   -0.6160 C.ar      1 <0>        -0.0617
     16 H1         -0.6716   -1.3631    1.3109 H         1 <0>         0.0542
     17 H2         -1.8938    1.9626    0.0820 H         1 <0>         0.0424
     18 H3         -0.1454    1.9872   -0.1292 H         1 <0>         0.0424
     19 H4         -3.1472   -0.1658   -0.3399 H         1 <0>         0.0424
     20 H5         -2.3111   -0.4287   -1.8494 H         1 <0>         0.0424
     21 H6         -2.8897   -0.1318    1.7129 H         1 <0>         0.0249
     22 H7         -1.7367   -0.0511    3.0091 H         1 <0>         0.0249
     23 H8         -1.9539    1.3538    2.0172 H         1 <0>         0.0249
     24 H9         -0.5265    1.3434   -2.5466 H         1 <0>         0.0242
     25 H10        -2.2543    1.6697   -2.2687 H         1 <0>         0.0242
     26 H11        -1.0695    2.9374   -2.0322 H         1 <0>         0.0242
     27 H12        -1.2381   -2.4956   -0.9542 H         1 <0>         0.0242
     28 H13        -2.3434   -2.3850    0.4369 H         1 <0>         0.0242
     29 H14        -2.9817   -2.5329   -1.1866 H         1 <0>         0.0242
     30 H15         1.1314   -1.9971    0.2758 H         1 <0>         0.0625
     31 H16         2.7017    1.9342    1.1371 H         1 <0>         0.0625
     32 H17         3.1703   -2.5337   -0.9683 H         1 <0>         0.0618
     33 H18         4.7565    1.3652   -0.1058 H         1 <0>         0.0618
     34 H19         4.9958   -0.8658   -1.1636 H         1 <0>         0.0618
@<TRIPOS>BOND
     1    1    6 2
     2    2    3 1
     3    2    4 1
     4    2    5 1
     5    3    6 1
     6    3    7 1
     7    3   16 1
     8    4    8 1
     9    4   17 1
    10    4   18 1
    11    5    9 1
    12    5   19 1
    13    5   20 1
    14    6   10 1
    15    7   21 1
    16    7   22 1
    17    7   23 1
    18    8   24 1
    19    8   25 1
    20    8   26 1
    21    9   27 1
    22    9   28 1
    23    9   29 1
    24   10   11 ar
    25   10   12 ar
    26   11   13 ar
    27   11   30 1
    28   12   14 ar
    29   12   31 1
    30   13   15 ar
    31   13   32 1
    32   14   15 ar
    33   14   33 1
    34   15   34 1
