@<TRIPOS>MOLECULE
DB00742
   26    25     0     0     0
SMALL
USER_CHARGES

@<TRIPOS>ATOM
      1 O1          0.5563   -1.6987   -0.4597 O.3       1 <0>        -0.3865
      2 O2         -0.5780   -0.1421    1.6530 O.3       1 <0>        -0.3865
      3 O3          2.0852    1.5685    0.1684 O.3       1 <0>        -0.3869
      4 O4         -1.9626    0.3804   -1.6968 O.3       1 <0>        -0.3869
      5 O5          4.3744    0.0435    0.2600 O.3       1 <0>        -0.3924
      6 O6         -4.3396   -0.0594   -0.3537 O.3       1 <0>        -0.3924
      7 C1          0.6485   -0.2749   -0.4202 C.3       1 <0>         0.1114
      8 C2         -0.5986    0.2790    0.2895 C.3       1 <0>         0.1114
      9 C3          1.9760    0.1412    0.2447 C.3       1 <0>         0.1065
     10 C4         -1.9255   -0.1522   -0.3666 C.3       1 <0>         0.1065
     11 C5          3.2205   -0.4385   -0.4241 C.3       1 <0>         0.0727
     12 C6         -3.1735    0.3574    0.3528 C.3       1 <0>         0.0727
     13 H1          0.6467    0.0800   -1.4577 H         1 <0>         0.0647
     14 H2         -0.5502    1.3740    0.2879 H         1 <0>         0.0647
     15 H3          1.9969   -0.1381    1.3049 H         1 <0>         0.0643
     16 H4         -1.9880   -1.2428   -0.4509 H         1 <0>         0.0643
     17 H5          3.2978   -0.1227   -1.4696 H         1 <0>         0.0584
     18 H6          3.2295   -1.5312   -0.3812 H         1 <0>         0.0584
     19 H7         -3.1898    1.4515    0.3831 H         1 <0>         0.0584
     20 H8         -3.2360   -0.0218    1.3772 H         1 <0>         0.0584
     21 H9          0.6723   -2.0311    0.4464 H         1 <0>         0.2100
     22 H10        -0.7384   -1.1007    1.6723 H         1 <0>         0.2100
     23 H11         1.4742    1.9458    0.8232 H         1 <0>         0.2100
     24 H12        -1.9115    1.3495   -1.6324 H         1 <0>         0.2100
     25 H13         4.3523    1.0149    0.2190 H         1 <0>         0.2095
     26 H14        -4.3389   -1.0317   -0.3693 H         1 <0>         0.2095
@<TRIPOS>BOND
     1    1    7 1
     2    1   21 1
     3    2    8 1
     4    2   22 1
     5    3    9 1
     6    3   23 1
     7    4   10 1
     8    4   24 1
     9    5   11 1
    10    5   25 1
    11    6   12 1
    12    6   26 1
    13    7    8 1
    14    7    9 1
    15    7   13 1
    16    8   10 1
    17    8   14 1
    18    9   11 1
    19    9   15 1
    20   10   12 1
    21   10   16 1
    22   11   17 1
    23   11   18 1
    24   12   19 1
    25   12   20 1
