@<TRIPOS>MOLECULE
DB00880
   23    24     0     0     0
SMALL
USER_CHARGES

@<TRIPOS>ATOM
      1 Cl1        -2.0839   -2.8099   -0.3099 Cl        1 <0>        -0.0815
      2 S1          2.1006    1.8433   -0.0541 S.o2      1 <0>         0.1017
      3 S2         -3.0466    0.2636   -0.5772 S.o2      1 <0>         0.0574
      4 O1          1.7648    2.6004    1.1382 O.2       1 <0>        -0.1462
      5 O2          2.0557    2.4758   -1.3601 O.2       1 <0>        -0.1462
      6 O3         -3.0941    1.5663   -1.2218 O.2       1 <0>        -0.1532
      7 O4         -3.7392   -0.8687   -1.1712 O.2       1 <0>        -0.1532
      8 N1          2.7111   -1.1017    0.1639 N.pl3     1 <0>        -0.3026
      9 N2          3.5662    1.1556    0.1511 N.2       1 <0>        -0.1214
     10 N3         -3.5487    0.4287    1.0463 N.pl3     1 <0>        -0.2035
     11 C1          0.9219    0.5261   -0.1256 C.ar      1 <0>         0.1355
     12 C2          1.3583   -0.7956   -0.0086 C.ar      1 <0>         0.0607
     13 C3         -1.3644   -0.1751   -0.3567 C.ar      1 <0>         0.1252
     14 C4         -0.4241    0.8501   -0.2984 C.ar      1 <0>        -0.0052
     15 C5          0.3977   -1.8115   -0.0698 C.ar      1 <0>        -0.0183
     16 C6         -0.9550   -1.5037   -0.2424 C.ar      1 <0>         0.0691
     17 C7          3.6706   -0.1295    0.2273 C.2       1 <0>         0.1076
     18 H1         -0.7208    1.8918   -0.3765 H         1 <0>         0.0658
     19 H2          0.7121   -2.8501    0.0184 H         1 <0>         0.0652
     20 H3          2.9637   -2.0806    0.2424 H         1 <0>         0.1531
     21 H4          4.6737   -0.5639    0.3658 H         1 <0>         0.1017
     22 H5         -3.7404    1.3766    1.3927 H         1 <0>         0.1442
     23 H6         -4.1792   -0.2879    1.4262 H         1 <0>         0.1442
@<TRIPOS>BOND
     1    1   16 1
     2    2    4 2
     3    2    5 2
     4    2    9 1
     5    2   11 1
     6    3    6 2
     7    3    7 2
     8    3   10 1
     9    3   13 1
    10    8   12 1
    11    8   17 1
    12    8   20 1
    13    9   17 2
    14   10   22 1
    15   10   23 1
    16   11   12 ar
    17   11   14 ar
    18   12   15 ar
    19   13   14 ar
    20   13   16 ar
    21   14   18 1
    22   15   16 ar
    23   15   19 1
    24   17   21 1
