@<TRIPOS>MOLECULE
DB00345
   24    24     0     0     0
SMALL
USER_CHARGES

@<TRIPOS>ATOM
      1 O1          1.3774   -1.3608    1.4584 O.2       1 <0>        -0.2702
      2 O2          3.2195   -0.6653   -1.5370 O.3       1 <0>        -0.4795
      3 O3          5.2423   -0.3177   -0.5699 O.2       1 <0>        -0.2492
      4 N1          1.8548    0.5916    0.3022 N.am      1 <0>        -0.3009
      5 N2         -4.5021    0.2071   -0.4476 N.pl3     1 <0>        -0.3580
      6 C1         -0.4282   -0.2339    0.4740 C.ar      1 <0>         0.0368
      7 C2          0.9825   -0.3864    0.7940 C.2       1 <0>         0.2445
      8 C3         -1.2538   -1.3562    0.4091 C.ar      1 <0>        -0.0479
      9 C4         -0.9553    1.0348    0.2329 C.ar      1 <0>        -0.0479
     10 C5         -3.1341    0.0588   -0.1383 C.ar      1 <0>         0.0246
     11 C6         -2.6067   -1.2099    0.1029 C.ar      1 <0>        -0.0403
     12 C7         -2.3084    1.1811   -0.0732 C.ar      1 <0>        -0.0403
     13 C8          3.2841    0.5671    0.5149 C.3       1 <0>         0.1091
     14 C9          4.0257   -0.1744   -0.5673 C.2       1 <0>         0.3221
     15 H1         -0.8618   -2.3539    0.5893 H         1 <0>         0.0626
     16 H2         -0.3556    1.9374    0.3037 H         1 <0>         0.0626
     17 H3          1.5047    1.3265   -0.3032 H         1 <0>         0.1496
     18 H4         -3.2399   -2.0922    0.0542 H         1 <0>         0.0636
     19 H5         -2.7092    2.1755   -0.2526 H         1 <0>         0.0636
     20 H6          3.4969    0.0875    1.4747 H         1 <0>         0.0577
     21 H7          3.6277    1.6052    0.5260 H         1 <0>         0.0577
     22 H8         -4.8846    1.1268   -0.6231 H         1 <0>         0.1423
     23 H9         -5.1013   -0.6062   -0.4953 H         1 <0>         0.1423
     24 H10         3.7254   -1.1426   -2.2288 H         1 <0>         0.2951
@<TRIPOS>BOND
     1    1    7 2
     2    2   14 1
     3    2   24 1
     4    3   14 2
     5    4    7 am
     6    4   13 1
     7    4   17 1
     8    5   10 1
     9    5   22 1
    10    5   23 1
    11    6    7 1
    12    6    8 ar
    13    6    9 ar
    14    8   11 ar
    15    8   15 1
    16    9   12 ar
    17    9   16 1
    18   10   11 ar
    19   10   12 ar
    20   11   18 1
    21   12   19 1
    22   13   14 1
    23   13   20 1
    24   13   21 1
