@<TRIPOS>MOLECULE
DB00244
   18    18     0     0     0
SMALL
USER_CHARGES

@<TRIPOS>ATOM
      1 O1         -1.8115   -2.0866    0.0195 O.3       1 <0>        -0.5059
      2 O2         -2.2998    1.9525    0.4388 O.3       1 <0>        -0.4770
      3 O3         -3.2384    0.1811   -0.6322 O.2       1 <0>        -0.2450
      4 N1          2.6065    1.2933   -0.0444 N.pl3     1 <0>        -0.3579
      5 C1         -0.9132    0.1360   -0.0708 C.ar      1 <0>         0.1018
      6 C2          1.4833    0.4405   -0.0275 C.ar      1 <0>         0.0255
      7 C3          0.1979    0.9793   -0.0856 C.ar      1 <0>        -0.0235
      8 C4         -0.7388   -1.2460    0.0020 C.ar      1 <0>         0.1309
      9 C5          1.6577   -0.9414    0.0452 C.ar      1 <0>        -0.0376
     10 C6          0.5466   -1.7847    0.0599 C.ar      1 <0>        -0.0176
     11 C7         -2.2469    0.7182   -0.1308 C.2       1 <0>         0.3404
     12 H1          0.0818    2.0587   -0.1551 H         1 <0>         0.0645
     13 H2          2.6542   -1.3733    0.0907 H         1 <0>         0.0637
     14 H3          0.6973   -2.8594    0.1171 H         1 <0>         0.0655
     15 H4          3.5386    0.9035    0.0003 H         1 <0>         0.1423
     16 H5          2.4809    2.2956   -0.0943 H         1 <0>         0.1423
     17 H6         -1.4950   -3.0046    0.0729 H         1 <0>         0.2922
     18 H7         -3.2012    2.3371    0.3942 H         1 <0>         0.2954
@<TRIPOS>BOND
     1    1    8 1
     2    1   17 1
     3    2   11 1
     4    2   18 1
     5    3   11 2
     6    4    6 1
     7    4   15 1
     8    4   16 1
     9    5    7 ar
    10    5    8 ar
    11    5   11 1
    12    6    7 ar
    13    6    9 ar
    14    7   12 1
    15    8   10 ar
    16    9   10 ar
    17    9   13 1
    18   10   14 1
