@<TRIPOS>MOLECULE
DB00625
   30    32     0     0     0
SMALL
USER_CHARGES

@<TRIPOS>ATOM
      1 Cl1         1.9626   -4.0579    0.6788 Cl        1 <0>        -0.0835
      2 F1         -0.1719    0.0454    2.5516 F         1 <0>        -0.1654
      3 F2          1.4192    1.5341    2.4146 F         1 <0>        -0.1654
      4 F3         -0.6656    2.1399    2.1837 F         1 <0>        -0.1654
      5 O1          0.6175    2.2239   -0.1631 O.3       1 <0>        -0.4168
      6 O2          2.0394    3.7463   -1.0256 O.2       1 <0>        -0.2261
      7 N1          2.7730    1.5905   -0.8242 N.am      1 <0>        -0.2507
      8 C1         -3.3642   -0.1984   -1.0328 C.3       1 <0>         0.0209
      9 C2         -4.5933    0.3234   -0.3565 C.3       1 <0>        -0.0382
     10 C3         -4.2103   -1.1201   -0.2112 C.3       1 <0>        -0.0382
     11 C4          0.3193    0.9257    0.4254 C.3       1 <0>         0.2958
     12 C5         -2.0758    0.1950   -0.5226 C.1       1 <0>        -0.0943
     13 C6          1.3683   -0.1230    0.1318 C.ar      1 <0>         0.0397
     14 C7         -1.0018    0.5228   -0.0972 C.1       1 <0>        -0.0407
     15 C8          2.5672    0.2553   -0.4698 C.ar      1 <0>         0.0448
     16 C9          0.2226    1.1683    1.9382 C.3       1 <0>         0.4460
     17 C10         1.1957   -1.4715    0.4884 C.ar      1 <0>        -0.0334
     18 C11         3.5762   -0.6807   -0.7197 C.ar      1 <0>        -0.0386
     19 C12         1.8277    2.5842   -0.6815 C.2       1 <0>         0.4065
     20 C13         2.1969   -2.4111    0.2359 C.ar      1 <0>         0.0415
     21 C14         3.3871   -2.0154   -0.3683 C.ar      1 <0>        -0.0416
     22 H1         -3.4193   -0.3215   -2.1098 H         1 <0>         0.0433
     23 H2         -5.4508    0.5567   -0.9764 H         1 <0>         0.0277
     24 H3         -4.4884    0.9606    0.5136 H         1 <0>         0.0277
     25 H4         -3.8486   -1.4490    0.7559 H         1 <0>         0.0277
     26 H5         -4.8107   -1.8553   -0.7338 H         1 <0>         0.0277
     27 H6          0.2726   -1.7925    0.9665 H         1 <0>         0.0637
     28 H7          3.6686    1.8394   -1.2349 H         1 <0>         0.1582
     29 H8          4.5099   -0.3805   -1.1882 H         1 <0>         0.0637
     30 H9          4.1770   -2.7345   -0.5689 H         1 <0>         0.0633
@<TRIPOS>BOND
     1    1   20 1
     2    2   16 1
     3    3   16 1
     4    4   16 1
     5    5   11 1
     6    5   19 1
     7    6   19 2
     8    7   15 1
     9    7   19 am
    10    7   28 1
    11    8    9 1
    12    8   10 1
    13    8   12 1
    14    8   22 1
    15    9   10 1
    16    9   23 1
    17    9   24 1
    18   10   25 1
    19   10   26 1
    20   11   13 1
    21   11   14 1
    22   11   16 1
    23   12   14 3
    24   13   15 ar
    25   13   17 ar
    26   15   18 ar
    27   17   20 ar
    28   17   27 1
    29   18   21 ar
    30   18   29 1
    31   20   21 ar
    32   21   30 1
