@<TRIPOS>MOLECULE
DB00360
   32    33     0     0     0
SMALL
USER_CHARGES

@<TRIPOS>ATOM
      1 O1         -1.9663   -1.0181    1.4056 O.3       1 <0>        -0.3874
      2 O2         -3.3431    0.7481   -1.5031 O.3       1 <0>        -0.3894
      3 O3          2.2947   -2.9908   -0.3699 O.2       1 <0>        -0.2637
      4 N1          0.2824   -1.0894   -0.2548 N.pl3     1 <0>        -0.3301
      5 N2          1.0196    1.5197    0.1111 N.pl3     1 <0>        -0.3270
      6 N3          3.3495    0.8200    0.0559 N.pl3     1 <0>        -0.3147
      7 N4          3.9816   -1.4432   -0.1789 N.2       1 <0>        -0.1759
      8 N5          5.5820    0.2675    0.0328 N.pl3     1 <0>        -0.3289
      9 C1         -0.7635   -0.0866   -0.4364 C.3       1 <0>         0.0646
     10 C2         -2.1000   -0.6397    0.0383 C.3       1 <0>         0.1004
     11 C3         -0.3853    1.2003    0.3241 C.3       1 <0>         0.0313
     12 C4         -3.2462    0.3646   -0.1328 C.3       1 <0>         0.0801
     13 C5          1.6119   -0.7375   -0.1538 C.2       1 <0>         0.1330
     14 C6          2.0029    0.5473    0.0048 C.2       1 <0>         0.1255
     15 C7         -4.5874   -0.2100    0.3083 C.3       1 <0>        -0.0364
     16 C8          2.6498   -1.8215   -0.2429 C.2       1 <0>         0.2973
     17 C9          4.2882   -0.1797   -0.0375 C.cat     1 <0>         0.1951
     18 H1         -0.8130    0.1422   -1.5087 H         1 <0>         0.0539
     19 H2         -2.3312   -1.5484   -0.5331 H         1 <0>         0.0638
     20 H3         -0.9912    2.0462   -0.0161 H         1 <0>         0.0481
     21 H4         -0.5452    1.0903    1.4029 H         1 <0>         0.0481
     22 H5          0.0745   -2.0634   -0.4495 H         1 <0>         0.1467
     23 H6         -3.0650    1.2639    0.4657 H         1 <0>         0.0617
     24 H7          1.3370    2.4716    0.2599 H         1 <0>         0.1475
     25 H8         -4.8471   -1.0936   -0.2851 H         1 <0>         0.0255
     26 H9         -5.3885    0.5203    0.1491 H         1 <0>         0.0255
     27 H10        -4.5802   -0.4872    1.3665 H         1 <0>         0.0255
     28 H11        -1.2426   -1.6652    1.4626 H         1 <0>         0.2100
     29 H12         3.6179    1.7906    0.1716 H         1 <0>         0.1698
     30 H13        -4.0561    1.4054   -1.5746 H         1 <0>         0.2099
     31 H14         6.3637   -0.3763   -0.0241 H         1 <0>         0.1451
     32 H15         5.7963    1.2526    0.1421 H         1 <0>         0.1451
@<TRIPOS>BOND
     1    1   10 1
     2    1   28 1
     3    2   12 1
     4    2   30 1
     5    3   16 2
     6    4    9 1
     7    4   13 1
     8    4   22 1
     9    5   11 1
    10    5   14 1
    11    5   24 1
    12    6   14 1
    13    6   17 2
    14    6   29 1
    15    7   16 1
    16    7   17 1
    17    8   17 1
    18    8   31 1
    19    8   32 1
    20    9   10 1
    21    9   11 1
    22    9   18 1
    23   10   12 1
    24   10   19 1
    25   11   20 1
    26   11   21 1
    27   12   15 1
    28   12   23 1
    29   13   14 2
    30   13   16 1
    31   15   25 1
    32   15   26 1
    33   15   27 1
