@<TRIPOS>MOLECULE
DB00849
   32    33     0     0     0
SMALL
USER_CHARGES

@<TRIPOS>ATOM
      1 O1         -1.4745    0.1143   -1.9057 O.2       1 <0>        -0.2736
      2 O2         -0.2675   -1.9950    2.0323 O.2       1 <0>        -0.2739
      3 O3         -2.3168    2.0791    2.2228 O.2       1 <0>        -0.2518
      4 N1         -1.8078    1.2157    0.1152 N.am      1 <0>        -0.2277
      5 N2         -1.1936    0.0960    2.0996 N.am      1 <0>        -0.2386
      6 C1         -0.1893   -0.6624   -0.0046 C.3       1 <0>         0.1481
      7 C2         -0.1674   -2.0085   -0.7709 C.3       1 <0>        -0.0293
      8 C3          1.2275   -0.0455   -0.0564 C.ar      1 <0>        -0.0237
      9 C4         -1.2288    0.2307   -0.7025 C.2       1 <0>         0.2422
     10 C5         -0.5567   -0.9483    1.4532 C.2       1 <0>         0.2399
     11 C6         -1.5382   -2.6494   -0.7849 C.3       1 <0>        -0.0636
     12 C7         -1.7946    1.2086    1.5213 C.2       1 <0>         0.3146
     13 C8          2.3072   -0.7652    0.4389 C.ar      1 <0>        -0.0571
     14 C9          1.4043    1.2217   -0.5975 C.ar      1 <0>        -0.0571
     15 C10        -2.5848    2.2631   -0.5382 C.3       1 <0>         0.0124
     16 C11         3.5854   -0.2085    0.3924 C.ar      1 <0>        -0.0615
     17 C12         2.6823    1.7782   -0.6443 C.ar      1 <0>        -0.0615
     18 C13         3.7729    1.0632   -0.1493 C.ar      1 <0>        -0.0617
     19 H1          0.5307   -2.7240   -0.3198 H         1 <0>         0.0280
     20 H2          0.1734   -1.8650   -1.8051 H         1 <0>         0.0280
     21 H3         -1.9318   -2.8341    0.2187 H         1 <0>         0.0230
     22 H4         -2.2868   -2.0806   -1.3411 H         1 <0>         0.0230
     23 H5         -1.4700   -3.6263   -1.2776 H         1 <0>         0.0230
     24 H6         -1.3090   -0.0001    3.1047 H         1 <0>         0.1591
     25 H7          2.1901   -1.7530    0.8732 H         1 <0>         0.0621
     26 H8          0.5953    1.8196   -1.0004 H         1 <0>         0.0621
     27 H9         -3.6327    1.9475   -0.5558 H         1 <0>         0.0434
     28 H10        -2.2424    2.4258   -1.5640 H         1 <0>         0.0434
     29 H11        -2.5086    3.2014    0.0188 H         1 <0>         0.0434
     30 H12         4.4345   -0.7641    0.7794 H         1 <0>         0.0618
     31 H13         2.8294    2.7680   -1.0668 H         1 <0>         0.0618
     32 H14         4.7682    1.4968   -0.1854 H         1 <0>         0.0618
@<TRIPOS>BOND
     1    1    9 2
     2    2   10 2
     3    3   12 2
     4    4    9 am
     5    4   12 am
     6    4   15 1
     7    5   10 am
     8    5   12 am
     9    5   24 1
    10    6    7 1
    11    6    8 1
    12    6    9 1
    13    6   10 1
    14    7   11 1
    15    7   19 1
    16    7   20 1
    17    8   13 ar
    18    8   14 ar
    19   11   21 1
    20   11   22 1
    21   11   23 1
    22   13   16 ar
    23   13   25 1
    24   14   17 ar
    25   14   26 1
    26   15   27 1
    27   15   28 1
    28   15   29 1
    29   16   18 ar
    30   16   30 1
    31   17   18 ar
    32   17   31 1
    33   18   32 1
