@<TRIPOS>MOLECULE
DB00703
   22    22     0     0     0
SMALL
USER_CHARGES

@<TRIPOS>ATOM
      1 S1         -2.9172    0.9863   -0.6886 S.o2      1 <0>         0.0814
      2 S2          0.0357    1.1418    0.0840 S.3       1 <0>        -0.0109
      3 O1         -2.5865    2.3220   -1.1494 O.2       1 <0>        -0.1512
      4 O2         -3.6306    0.0427   -1.5295 O.2       1 <0>        -0.1512
      5 O3          2.7940    1.3628    1.9117 O.2       1 <0>        -0.2739
      6 N1         -0.0232   -1.4113   -0.0681 N.pl3     1 <0>        -0.2439
      7 N2         -1.3118   -1.0608   -0.3775 N.2       1 <0>        -0.1415
      8 N3         -3.6816    1.0805    0.8347 N.pl3     1 <0>        -0.2015
      9 N4          2.1011   -0.4352    0.5937 N.2       1 <0>        -0.1553
     10 C1         -1.3985    0.2313   -0.3351 C.2       1 <0>         0.2536
     11 C2          0.8638   -0.4040    0.2398 C.2       1 <0>         0.1845
     12 C3          0.2851   -2.8232   -0.0279 C.3       1 <0>         0.0328
     13 C4          2.7274    0.7689    0.8370 C.2       1 <0>         0.2353
     14 C5          3.3716    1.3391   -0.3994 C.3       1 <0>         0.0142
     15 H1          0.2622   -3.1842    1.0050 H         1 <0>         0.0473
     16 H2          1.2806   -3.0147   -0.4413 H         1 <0>         0.0473
     17 H3         -0.4351   -3.4057   -0.6125 H         1 <0>         0.0473
     18 H4         -4.3906    1.8150    0.9551 H         1 <0>         0.1443
     19 H5         -3.9552    0.1927    1.2753 H         1 <0>         0.1443
     20 H6          2.9588    0.9004   -1.3122 H         1 <0>         0.0323
     21 H7          3.2047    2.4195   -0.4301 H         1 <0>         0.0323
     22 H8          4.4453    1.1361   -0.3648 H         1 <0>         0.0323
@<TRIPOS>BOND
     1    1    3 2
     2    1    4 2
     3    1    8 1
     4    1   10 1
     5    2   10 1
     6    2   11 1
     7    5   13 2
     8    6    7 1
     9    6   11 1
    10    6   12 1
    11    7   10 2
    12    8   18 1
    13    8   19 1
    14    9   11 2
    15    9   13 1
    16   12   15 1
    17   12   16 1
    18   12   17 1
    19   13   14 1
    20   14   20 1
    21   14   21 1
    22   14   22 1
