@<TRIPOS>MOLECULE
DB00920
   41    44     0     0     0
SMALL
USER_CHARGES

@<TRIPOS>ATOM
      1 S1          2.0619   -4.0815    0.3528 S.3       1 <0>        -0.0931
      2 O1          3.6759   -2.1947    2.0383 O.2       1 <0>        -0.2911
      3 N1         -3.3734    0.7388    0.0374 N.3       1 <0>        -0.3047
      4 C1         -0.7053   -0.0993   -0.6783 C.2       1 <0>        -0.0588
      5 C2         -1.8601   -1.0595   -0.7650 C.3       1 <0>        -0.0180
      6 C3         -1.1035    1.3488   -0.7645 C.3       1 <0>        -0.0180
      7 C4         -2.9618   -0.6629    0.2245 C.3       1 <0>         0.0023
      8 C5         -2.2343    1.6533    0.2246 C.3       1 <0>         0.0023
      9 C6          0.5625   -0.4979   -0.5067 C.2       1 <0>        -0.0100
     10 C7          1.5872    0.5806   -0.4417 C.ar      1 <0>        -0.0137
     11 C8          0.9032   -1.8976   -0.3630 C.2       1 <0>         0.0002
     12 C9          2.4417    0.6868    0.6735 C.ar      1 <0>        -0.0322
     13 C10        -4.4588    1.0799    0.9567 C.3       1 <0>        -0.0127
     14 C11         1.8749   -2.3793    0.5025 C.2       1 <0>         0.0626
     15 C12         2.3166   -0.2600    1.8383 C.3       1 <0>         0.0367
     16 C13         2.7058   -1.6806    1.4779 C.2       1 <0>         0.1745
     17 C14         1.7444    1.4748   -1.5151 C.ar      1 <0>        -0.0537
     18 C15         0.3034   -2.9547   -1.1240 C.2       1 <0>        -0.0463
     19 C16         3.4240    1.6891    0.6964 C.ar      1 <0>        -0.0576
     20 C17         0.8387   -4.1865   -0.8290 C.2       1 <0>        -0.0231
     21 C18         2.7232    2.4677   -1.4763 C.ar      1 <0>        -0.0612
     22 C19         3.5614    2.5753   -0.3712 C.ar      1 <0>        -0.0615
     23 H1         -2.2562   -1.0594   -1.7879 H         1 <0>         0.0323
     24 H2         -1.6690   -2.0880   -0.4782 H         1 <0>         0.0323
     25 H3         -0.3358    2.0834   -0.5232 H         1 <0>         0.0323
     26 H4         -1.4431    1.5616   -1.7867 H         1 <0>         0.0323
     27 H5         -3.8232   -1.3223    0.0599 H         1 <0>         0.0429
     28 H6         -2.6162   -0.8305    1.2542 H         1 <0>         0.0429
     29 H7         -1.8538    1.5941    1.2538 H         1 <0>         0.0429
     30 H8         -2.5635    2.6867    0.0588 H         1 <0>         0.0429
     31 H9         -5.3252    0.4312    0.7863 H         1 <0>         0.0391
     32 H10        -4.7986    2.1074    0.7861 H         1 <0>         0.0391
     33 H11        -4.1580    0.9854    2.0064 H         1 <0>         0.0391
     34 H12         2.9597    0.0674    2.6650 H         1 <0>         0.0394
     35 H13         1.2952   -0.2491    2.2383 H         1 <0>         0.0394
     36 H14         1.1314    1.3913   -2.4104 H         1 <0>         0.0624
     37 H15        -0.4136   -2.8432   -1.9282 H         1 <0>         0.0629
     38 H16         4.0920    1.7856    1.5489 H         1 <0>         0.0621
     39 H17         0.5867   -5.1381   -1.2755 H         1 <0>         0.0694
     40 H18         2.8375    3.1499   -2.3137 H         1 <0>         0.0618
     41 H19         4.3263    3.3459   -0.3420 H         1 <0>         0.0618
@<TRIPOS>BOND
     1    1   14 1
     2    1   20 1
     3    2   16 2
     4    3    7 1
     5    3    8 1
     6    3   13 1
     7    4    5 1
     8    4    6 1
     9    4    9 2
    10    5    7 1
    11    5   23 1
    12    5   24 1
    13    6    8 1
    14    6   25 1
    15    6   26 1
    16    7   27 1
    17    7   28 1
    18    8   29 1
    19    8   30 1
    20    9   10 1
    21    9   11 1
    22   10   12 ar
    23   10   17 ar
    24   11   14 2
    25   11   18 1
    26   12   15 1
    27   12   19 ar
    28   13   31 1
    29   13   32 1
    30   13   33 1
    31   14   16 1
    32   15   16 1
    33   15   34 1
    34   15   35 1
    35   17   21 ar
    36   17   36 1
    37   18   20 2
    38   18   37 1
    39   19   22 ar
    40   19   38 1
    41   20   39 1
    42   21   22 ar
    43   21   40 1
    44   22   41 1
