@<TRIPOS>MOLECULE
DB00847
   11    10     0     0     0
SMALL
USER_CHARGES

@<TRIPOS>ATOM
      1 S1         -2.7431   -0.5487    0.0465 S.3       1 <0>        -0.7898
      2 N1          1.2708    0.1495    0.0083 N.4       1 <0>         0.2172
      3 C1         -0.0087   -0.6065   -0.0115 C.3       1 <0>        -0.0575
      4 C2         -1.1682    0.3858   -0.0057 C.3       1 <0>        -0.1354
      5 H1          0.0045   -1.2509    0.8742 H         1 <0>         0.0794
      6 H2          0.0123   -1.2267   -0.9141 H         1 <0>         0.0794
      7 H3          1.3519    0.7364    0.8493 H         1 <0>         0.1993
      8 H4          1.3605    0.7646   -0.8113 H         1 <0>         0.1993
      9 H5          2.0773   -0.4890    0.0018 H         1 <0>         0.1993
     10 H6         -1.0952    1.0275   -0.8926 H         1 <0>         0.0043
     11 H7         -1.0622    1.0581    0.8551 H         1 <0>         0.0043
@<TRIPOS>BOND
     1    1    4 1
     2    2    3 1
     3    2    7 1
     4    2    8 1
     5    2    9 1
     6    3    4 1
     7    3    5 1
     8    3    6 1
     9    4   10 1
    10    4   11 1
