@<TRIPOS>MOLECULE
DB00929
   65    65     0     0     0
SMALL
USER_CHARGES

@<TRIPOS>ATOM
      1 O1         -4.7978    3.5915   -0.5167 O.3       1 <0>        -0.3908
      2 O2         -0.3228    4.5171    0.5733 O.2       1 <0>        -0.2970
      3 O3         -3.4901   -2.4955   -2.5793 O.3       1 <0>        -0.3885
      4 O4          8.0667   -0.4798    0.1528 O.3       1 <0>        -0.4679
      5 O5          6.8528   -0.7670   -1.7875 O.2       1 <0>        -0.2509
      6 C1         -1.4441    2.3779    0.3286 C.3       1 <0>         0.0262
      7 C2         -2.8369    2.1878   -0.2912 C.3       1 <0>         0.0130
      8 C3         -3.6597    3.3438    0.2934 C.3       1 <0>         0.0688
      9 C4         -2.7121    4.5409    0.2653 C.3       1 <0>         0.0327
     10 C5         -0.3265    1.7753   -0.5044 C.3       1 <0>        -0.0429
     11 C6         -1.3608    3.8888    0.4058 C.2       1 <0>         0.1395
     12 C7         -3.4225    0.8456    0.0104 C.2       1 <0>        -0.0816
     13 C8          0.9852    1.7112    0.2784 C.3       1 <0>        -0.0524
     14 C9          2.0995    1.0723   -0.5522 C.3       1 <0>        -0.0530
     15 C10        -3.7983   -0.0333   -0.9301 C.2       1 <0>        -0.0849
     16 C11        -3.5696   -2.5832   -1.1534 C.3       1 <0>         0.0667
     17 C12        -4.3941   -1.3818   -0.6251 C.3       1 <0>        -0.0060
     18 C13         3.4028    0.9784    0.2439 C.3       1 <0>        -0.0526
     19 C14        -2.1347   -2.4925   -0.5764 C.3       1 <0>        -0.0240
     20 C15        -4.2326   -3.9211   -0.8084 C.3       1 <0>        -0.0358
     21 C16         4.5082    0.3080   -0.5780 C.3       1 <0>        -0.0430
     22 C17        -2.0517   -2.5347    0.9553 C.3       1 <0>        -0.0507
     23 C18        -0.6096   -2.3538    1.4341 C.3       1 <0>        -0.0558
     24 C19         5.8161    0.1744    0.2017 C.3       1 <0>         0.0449
     25 C20        -0.5212   -2.3614    2.9519 C.3       1 <0>        -0.0653
     26 C21         6.9399   -0.4215   -0.6172 C.2       1 <0>         0.3068
     27 C22         9.2321   -0.9962   -0.4982 C.3       1 <0>         0.0817
     28 H1         -1.4275    1.9935    1.3569 H         1 <0>         0.0384
     29 H2         -2.7776    2.3222   -1.3819 H         1 <0>         0.0375
     30 H3         -3.9898    3.1298    1.3176 H         1 <0>         0.0603
     31 H4         -2.7624    5.0866   -0.6815 H         1 <0>         0.0367
     32 H5         -2.9049    5.2190    1.1002 H         1 <0>         0.0367
     33 H6         -0.1758    2.3570   -1.4225 H         1 <0>         0.0272
     34 H7         -0.5985    0.7584   -0.8111 H         1 <0>         0.0272
     35 H8         -3.5470    0.5843    1.0588 H         1 <0>         0.0573
     36 H9          1.3072    2.7101    0.5880 H         1 <0>         0.0265
     37 H10         0.8350    1.1253    1.1937 H         1 <0>         0.0265
     38 H11         1.7906    0.0683   -0.8683 H         1 <0>         0.0265
     39 H12         2.2653    1.6617   -1.4620 H         1 <0>         0.0265
     40 H13        -3.6836    0.2259   -1.9797 H         1 <0>         0.0570
     41 H14        -5.3789   -1.3980   -1.1122 H         1 <0>         0.0335
     42 H15        -4.5968   -1.4890    0.4468 H         1 <0>         0.0335
     43 H16        -5.2440    4.3777   -0.1584 H         1 <0>         0.2098
     44 H17         3.2325    0.4035    1.1623 H         1 <0>         0.0265
     45 H18         3.7258    1.9823    0.5447 H         1 <0>         0.0265
     46 H19        -1.6304   -1.5956   -0.9579 H         1 <0>         0.0293
     47 H20        -1.5448   -3.3244   -0.9862 H         1 <0>         0.0293
     48 H21        -4.3942   -4.0388    0.2669 H         1 <0>         0.0257
     49 H22        -5.2051   -4.0091   -1.3063 H         1 <0>         0.0257
     50 H23        -3.6244   -4.7594   -1.1660 H         1 <0>         0.0257
     51 H24         4.6848    0.8895   -1.4918 H         1 <0>         0.0270
     52 H25         4.1766   -0.6866   -0.9016 H         1 <0>         0.0270
     53 H26        -2.6622   -1.7484    1.4071 H         1 <0>         0.0266
     54 H27        -2.4321   -3.4933    1.3250 H         1 <0>         0.0266
     55 H28        -4.3959   -2.5163   -2.9324 H         1 <0>         0.2102
     56 H29         0.0197   -3.1558    1.0312 H         1 <0>         0.0263
     57 H30        -0.2083   -1.4057    1.0577 H         1 <0>         0.0263
     58 H31         5.6558   -0.4657    1.0766 H         1 <0>         0.0377
     59 H32         6.1384    1.1650    0.5427 H         1 <0>         0.0377
     60 H33         0.5178   -2.2330    3.2713 H         1 <0>         0.0230
     61 H34        -0.8887   -3.3075    3.3617 H         1 <0>         0.0230
     62 H35        -1.1118   -1.5467    3.3833 H         1 <0>         0.0230
     63 H36         9.0588   -2.0264   -0.8234 H         1 <0>         0.0661
     64 H37         9.5033   -0.3625   -1.3479 H         1 <0>         0.0661
     65 H38        10.0549   -0.9891    0.2217 H         1 <0>         0.0661
@<TRIPOS>BOND
     1    1    8 1
     2    1   43 1
     3    2   11 2
     4    3   16 1
     5    3   55 1
     6    4   26 1
     7    4   27 1
     8    5   26 2
     9    6    7 1
    10    6   10 1
    11    6   11 1
    12    6   28 1
    13    7    8 1
    14    7   12 1
    15    7   29 1
    16    8    9 1
    17    8   30 1
    18    9   11 1
    19    9   31 1
    20    9   32 1
    21   10   13 1
    22   10   33 1
    23   10   34 1
    24   12   15 2
    25   12   35 1
    26   13   14 1
    27   13   36 1
    28   13   37 1
    29   14   18 1
    30   14   38 1
    31   14   39 1
    32   15   17 1
    33   15   40 1
    34   16   17 1
    35   16   19 1
    36   16   20 1
    37   17   41 1
    38   17   42 1
    39   18   21 1
    40   18   44 1
    41   18   45 1
    42   19   22 1
    43   19   46 1
    44   19   47 1
    45   20   48 1
    46   20   49 1
    47   20   50 1
    48   21   24 1
    49   21   51 1
    50   21   52 1
    51   22   23 1
    52   22   53 1
    53   22   54 1
    54   23   25 1
    55   23   56 1
    56   23   57 1
    57   24   26 1
    58   24   58 1
    59   24   59 1
    60   25   60 1
    61   25   61 1
    62   25   62 1
    63   27   63 1
    64   27   64 1
    65   27   65 1
