@<TRIPOS>MOLECULE
DB00284
   87    89     0     0     0
SMALL
USER_CHARGES

@<TRIPOS>ATOM
      1 O1         -1.0946    1.0508   -0.5427 O.3       1 <0>        -0.3441
      2 O2          0.6145    0.7792    1.0359 O.3       1 <0>        -0.3401
      3 O3          3.2353    0.2357   -1.4987 O.3       1 <0>        -0.3405
      4 O4         -2.9925    2.9719    1.8275 O.3       1 <0>        -0.3874
      5 O5         -1.7121   -0.4352    1.8545 O.3       1 <0>        -0.3841
      6 O6          4.9675   -0.1149    0.0814 O.3       1 <0>        -0.3401
      7 O7          2.2244    3.1490    1.2473 O.3       1 <0>        -0.3864
      8 O8         -4.9994   -2.6098   -0.1293 O.3       1 <0>        -0.3873
      9 O9          5.0086    2.6330    0.6496 O.3       1 <0>        -0.3841
     10 O10        -7.3581   -1.2037    2.2890 O.3       1 <0>        -0.3863
     11 O11        -7.8399   -2.7050   -0.9683 O.3       1 <0>        -0.3848
     12 O12         1.6489   -1.8913   -2.1409 O.3       1 <0>        -0.3924
     13 O13        -9.6722    0.4547   -1.0900 O.3       1 <0>        -0.3906
     14 O14         8.1788   -0.9063   -1.4405 O.3       1 <0>        -0.3861
     15 O15         6.7772   -3.1471   -0.7253 O.3       1 <0>        -0.3869
     16 O16         8.5483   -1.2029    1.1824 O.3       1 <0>        -0.3819
     17 O17         4.6785   -4.2379    0.6901 O.3       1 <0>        -0.3924
     18 O18        10.2453    0.8393    1.0040 O.2       1 <0>        -0.2982
     19 N1         -3.8936   -0.0388   -0.0960 N.3       1 <0>        -0.3002
     20 C1         -3.4645    1.3556    0.0778 C.3       1 <0>         0.0631
     21 C2         -3.0262    1.5745    1.5388 C.3       1 <0>         0.1035
     22 C3         -2.3354    1.6516   -0.9335 C.3       1 <0>         0.0768
     23 C4         -1.6411    0.9902    1.8278 C.3       1 <0>         0.1332
     24 C5         -0.6330    1.4128    0.7573 C.3       1 <0>         0.1882
     25 C6          1.6072    1.1455    0.0805 C.3       1 <0>         0.1184
     26 C7         -5.2469   -0.2320    0.4327 C.3       1 <0>         0.0555
     27 C8          2.7271    1.8811    0.8191 C.3       1 <0>         0.1144
     28 C9          2.1416   -0.1012   -0.6376 C.3       1 <0>         0.1134
     29 C10        -5.4634   -1.6978    0.8664 C.3       1 <0>         0.1026
     30 C11         3.9233    2.1043   -0.1042 C.3       1 <0>         0.1341
     31 C12         4.3442    0.8119   -0.8057 C.3       1 <0>         0.1884
     32 C13        -6.9425   -1.9774    1.1646 C.3       1 <0>         0.1124
     33 C14        -2.1536    3.1427   -1.2246 C.3       1 <0>        -0.0370
     34 C15        -6.2903    0.2569   -0.5379 C.2       1 <0>        -0.0608
     35 C16        -7.8550   -1.6322   -0.0272 C.3       1 <0>         0.1067
     36 C17        -7.4590   -0.3707   -0.7622 C.2       1 <0>        -0.0162
     37 C18         1.0761   -0.7618   -1.5082 C.3       1 <0>         0.0730
     38 C19         5.9413   -0.8989   -0.5908 C.3       1 <0>         0.1183
     39 C20        -8.4561    0.1638   -1.7512 C.3       1 <0>         0.0678
     40 C21         7.2982   -0.1735   -0.5797 C.3       1 <0>         0.1162
     41 C22         5.9314   -2.2914    0.0568 C.3       1 <0>         0.1069
     42 C23         7.9653    0.0341    0.7865 C.3       1 <0>         0.1382
     43 C24         4.5548   -2.9458    0.1021 C.3       1 <0>         0.0727
     44 C25         9.0626    1.0785    0.7809 C.2       1 <0>         0.1512
     45 H1         -4.2857    2.0412   -0.1627 H         1 <0>         0.0512
     46 H2         -3.7386    1.1440    2.2491 H         1 <0>         0.0637
     47 H3         -2.5971    1.1910   -1.8954 H         1 <0>         0.0611
     48 H4         -1.2747    1.3144    2.8092 H         1 <0>         0.0671
     49 H5         -0.4766    2.4964    0.8101 H         1 <0>         0.0937
     50 H6          1.2065    1.8377   -0.6750 H         1 <0>         0.0651
     51 H7         -5.3978    0.3678    1.3383 H         1 <0>         0.0531
     52 H8         -3.2363   -0.6657    0.3660 H         1 <0>         0.1230
     53 H9          3.0236    1.3433    1.7270 H         1 <0>         0.0648
     54 H10         2.4782   -0.8400    0.0958 H         1 <0>         0.0647
     55 H11        -4.8672   -1.8779    1.7706 H         1 <0>         0.0639
     56 H12         3.6498    2.8554   -0.8564 H         1 <0>         0.0671
     57 H13         5.0619    1.1122   -1.5789 H         1 <0>         0.0938
     58 H14        -7.0606   -3.0361    1.4259 H         1 <0>         0.0649
     59 H15        -3.0664    3.5701   -1.6513 H         1 <0>         0.0255
     60 H16        -1.3363    3.2878   -1.9397 H         1 <0>         0.0255
     61 H17        -1.8933    3.7215   -0.3355 H         1 <0>         0.0255
     62 H18        -6.0928    1.1800   -1.0772 H         1 <0>         0.0589
     63 H19        -8.8854   -1.5275    0.3334 H         1 <0>         0.0668
     64 H20         0.2269   -1.1038   -0.9106 H         1 <0>         0.0584
     65 H21         0.7304   -0.0807   -2.2926 H         1 <0>         0.0584
     66 H22        -3.8874    3.3231    1.6810 H         1 <0>         0.2100
     67 H23        -2.3376   -0.6836    2.5565 H         1 <0>         0.2101
     68 H24         5.6521   -1.0529   -1.6420 H         1 <0>         0.0651
     69 H25         1.9591    3.6527    0.4590 H         1 <0>         0.2100
     70 H26        -5.1373   -3.5101    0.2106 H         1 <0>         0.2100
     71 H27        -8.6473   -0.5782   -2.5334 H         1 <0>         0.0605
     72 H28        -8.1018    1.0802   -2.2353 H         1 <0>         0.0605
     73 H29         5.7573    2.7537    0.0411 H         1 <0>         0.2101
     74 H30         7.1648    0.8133   -1.0379 H         1 <0>         0.0650
     75 H31         6.3280   -2.2622    1.0766 H         1 <0>         0.0643
     76 H32        -8.2732   -1.4568    2.4986 H         1 <0>         0.2100
     77 H33        -8.1676   -3.4993   -0.5130 H         1 <0>         0.2103
     78 H34         0.9557   -2.2955   -2.6899 H         1 <0>         0.2095
     79 H35         7.2360    0.3390    1.5436 H         1 <0>         0.0697
     80 H36         4.1418   -3.0722   -0.9035 H         1 <0>         0.0584
     81 H37         3.8637   -2.3706    0.7207 H         1 <0>         0.0584
     82 H38       -10.2950    0.7791   -1.7626 H         1 <0>         0.2098
     83 H39         9.0022   -0.3956   -1.5217 H         1 <0>         0.2100
     84 H40         6.7790   -4.0214   -0.2994 H         1 <0>         0.2100
     85 H41         8.7297    2.1079    0.5621 H         1 <0>         0.1055
     86 H42         9.1490   -1.4931    0.4749 H         1 <0>         0.2105
     87 H43         3.7887   -4.6298    0.7049 H         1 <0>         0.2095
@<TRIPOS>BOND
     1    1   22 1
     2    1   24 1
     3    2   24 1
     4    2   25 1
     5    3   28 1
     6    3   31 1
     7    4   21 1
     8    4   66 1
     9    5   23 1
    10    5   67 1
    11    6   31 1
    12    6   38 1
    13    7   27 1
    14    7   69 1
    15    8   29 1
    16    8   70 1
    17    9   30 1
    18    9   73 1
    19   10   32 1
    20   10   76 1
    21   11   35 1
    22   11   77 1
    23   12   37 1
    24   12   78 1
    25   13   39 1
    26   13   82 1
    27   14   40 1
    28   14   83 1
    29   15   41 1
    30   15   84 1
    31   16   42 1
    32   16   86 1
    33   17   43 1
    34   17   87 1
    35   18   44 2
    36   19   20 1
    37   19   26 1
    38   19   52 1
    39   20   21 1
    40   20   22 1
    41   20   45 1
    42   21   23 1
    43   21   46 1
    44   22   33 1
    45   22   47 1
    46   23   24 1
    47   23   48 1
    48   24   49 1
    49   25   27 1
    50   25   28 1
    51   25   50 1
    52   26   29 1
    53   26   34 1
    54   26   51 1
    55   27   30 1
    56   27   53 1
    57   28   37 1
    58   28   54 1
    59   29   32 1
    60   29   55 1
    61   30   31 1
    62   30   56 1
    63   31   57 1
    64   32   35 1
    65   32   58 1
    66   33   59 1
    67   33   60 1
    68   33   61 1
    69   34   36 2
    70   34   62 1
    71   35   36 1
    72   35   63 1
    73   36   39 1
    74   37   64 1
    75   37   65 1
    76   38   40 1
    77   38   41 1
    78   38   68 1
    79   39   71 1
    80   39   72 1
    81   40   42 1
    82   40   74 1
    83   41   43 1
    84   41   75 1
    85   42   44 1
    86   42   79 1
    87   43   80 1
    88   43   81 1
    89   44   85 1
