@<TRIPOS>MOLECULE
DB00433
   49    52     0     0     0
SMALL
USER_CHARGES

@<TRIPOS>ATOM
      1 Cl1        -2.2767   -5.0704    0.5712 Cl        1 <0>        -0.0835
      2 S1         -5.4438    0.3626    0.3432 S.3       1 <0>        -0.0857
      3 N1          2.4091   -0.5282   -0.4652 N.3       1 <0>        -0.2999
      4 N2          5.0063    0.3805    0.4218 N.3       1 <0>        -0.3029
      5 N3         -2.5036   -0.0291   -0.5876 N.pl3     1 <0>        -0.2982
      6 C1          2.5613    0.7163    0.2983 C.3       1 <0>         0.0117
      7 C2          3.6199   -0.7991   -1.2497 C.3       1 <0>         0.0117
      8 C3          1.2330   -0.4657   -1.3307 C.3       1 <0>         0.0004
      9 C4          3.7948    0.6517    1.2054 C.3       1 <0>         0.0114
     10 C5          4.8543   -0.8629   -0.3436 C.3       1 <0>         0.0114
     11 C6         -0.0577   -0.2771   -0.5305 C.3       1 <0>        -0.0240
     12 C7         -1.3057   -0.2274   -1.4138 C.3       1 <0>         0.0185
     13 C8          6.1815    0.3163    1.2884 C.3       1 <0>        -0.0127
     14 C9         -3.1489   -1.1871   -0.0846 C.ar      1 <0>         0.0493
     15 C10        -2.8852    1.3061   -0.3009 C.ar      1 <0>         0.0479
     16 C11        -4.4744   -1.1315    0.3899 C.ar      1 <0>         0.0342
     17 C12        -4.1848    1.6087    0.1516 C.ar      1 <0>         0.0341
     18 C13        -2.4902   -2.4335   -0.0012 C.ar      1 <0>        -0.0209
     19 C14        -1.9806    2.3841   -0.4190 C.ar      1 <0>        -0.0393
     20 C15        -5.1070   -2.2815    0.8949 C.ar      1 <0>        -0.0448
     21 C16        -4.5559    2.9337    0.4415 C.ar      1 <0>        -0.0462
     22 C17        -3.1222   -3.5722    0.5062 C.ar      1 <0>         0.0428
     23 C18        -2.3533    3.6985   -0.1246 C.ar      1 <0>        -0.0599
     24 C19        -4.4330   -3.4968    0.9518 C.ar      1 <0>        -0.0422
     25 C20        -3.6432    3.9741    0.3027 C.ar      1 <0>        -0.0606
     26 H1          2.6345    1.5850   -0.3696 H         1 <0>         0.0439
     27 H2          1.7188    0.8846    0.9744 H         1 <0>         0.0439
     28 H3          3.5212   -1.7627   -1.7643 H         1 <0>         0.0439
     29 H4          3.7677   -0.0305   -2.0206 H         1 <0>         0.0439
     30 H5          1.3299    0.3434   -2.0664 H         1 <0>         0.0427
     31 H6          1.1484   -1.4038   -1.8939 H         1 <0>         0.0427
     32 H7          3.8959    1.6149    1.7202 H         1 <0>         0.0439
     33 H8          3.6474   -0.1169    1.9765 H         1 <0>         0.0439
     34 H9          4.7743   -1.7288    0.3279 H         1 <0>         0.0439
     35 H10         5.7374   -1.0201   -0.9747 H         1 <0>         0.0439
     36 H11        -0.0145    0.6375    0.0599 H         1 <0>         0.0293
     37 H12        -0.1248   -1.0776    0.2137 H         1 <0>         0.0293
     38 H13        -1.3864   -1.1404   -2.0187 H         1 <0>         0.0468
     39 H14        -1.2109    0.5646   -2.1687 H         1 <0>         0.0468
     40 H15         7.0887    0.1588    0.6945 H         1 <0>         0.0391
     41 H16         6.1089   -0.4900    2.0271 H         1 <0>         0.0391
     42 H17         6.3167    1.2629    1.8233 H         1 <0>         0.0391
     43 H18        -1.4714   -2.5630   -0.3516 H         1 <0>         0.0651
     44 H19        -0.9630    2.2580   -0.7720 H         1 <0>         0.0636
     45 H20        -6.1349   -2.2418    1.2503 H         1 <0>         0.0630
     46 H21        -5.5630    3.1696    0.7793 H         1 <0>         0.0629
     47 H22        -1.6335    4.5041   -0.2377 H         1 <0>         0.0618
     48 H23        -4.9429   -4.3714    1.3466 H         1 <0>         0.0632
     49 H24        -3.9388    4.9939    0.5289 H         1 <0>         0.0618
@<TRIPOS>BOND
     1    1   22 1
     2    2   16 1
     3    2   17 1
     4    3    6 1
     5    3    7 1
     6    3    8 1
     7    4    9 1
     8    4   10 1
     9    4   13 1
    10    5   12 1
    11    5   14 1
    12    5   15 1
    13    6    9 1
    14    6   26 1
    15    6   27 1
    16    7   10 1
    17    7   28 1
    18    7   29 1
    19    8   11 1
    20    8   30 1
    21    8   31 1
    22    9   32 1
    23    9   33 1
    24   10   34 1
    25   10   35 1
    26   11   12 1
    27   11   36 1
    28   11   37 1
    29   12   38 1
    30   12   39 1
    31   13   40 1
    32   13   41 1
    33   13   42 1
    34   14   16 ar
    35   14   18 ar
    36   15   17 ar
    37   15   19 ar
    38   16   20 ar
    39   17   21 ar
    40   18   22 ar
    41   18   43 1
    42   19   23 ar
    43   19   44 1
    44   20   24 ar
    45   20   45 1
    46   21   25 ar
    47   21   46 1
    48   22   24 ar
    49   23   25 ar
    50   23   47 1
    51   24   48 1
    52   25   49 1
