@<TRIPOS>MOLECULE
DB00800
   37    39     0     0     0
SMALL
USER_CHARGES

@<TRIPOS>ATOM
      1 Cl1        -3.3692    0.3113    2.6178 Cl        1 <0>        -0.0793
      2 O1         -3.7756   -2.2554   -1.7220 O.3       1 <0>        -0.5033
      3 O2         -4.6906   -1.4700    0.7420 O.3       1 <0>        -0.5023
      4 O3          4.9160   -2.0728    1.0717 O.3       1 <0>        -0.5068
      5 N1          0.6639    2.6376   -0.1127 N.3       1 <0>        -0.3148
      6 C1          0.3348    0.3691   -1.2349 C.3       1 <0>         0.0221
      7 C2         -1.0069   -0.0828   -0.6604 C.ar      1 <0>        -0.0305
      8 C3          0.3586    1.9164   -1.3496 C.3       1 <0>         0.0067
      9 C4         -1.4699    0.3303    0.6051 C.ar      1 <0>        -0.0203
     10 C5         -0.6729    1.2590    1.4867 C.3       1 <0>        -0.0133
     11 C6         -0.4298    2.6283    0.8557 C.3       1 <0>        -0.0000
     12 C7          1.5714   -0.2899   -0.6120 C.ar      1 <0>        -0.0385
     13 C8         -1.8052   -0.9553   -1.4264 C.ar      1 <0>        -0.0124
     14 C9         -2.7091   -0.1447    1.0709 C.ar      1 <0>         0.0894
     15 C10        -3.0333   -1.4125   -0.9511 C.ar      1 <0>         0.1600
     16 C11         2.7968    0.3724   -0.6351 C.ar      1 <0>        -0.0545
     17 C12         1.4649   -1.5490   -0.0256 C.ar      1 <0>        -0.0545
     18 C13        -3.4850   -1.0078    0.2985 C.ar      1 <0>         0.1772
     19 C14         3.9215   -0.2278   -0.0692 C.ar      1 <0>        -0.0199
     20 C15         2.5898   -2.1490    0.5405 C.ar      1 <0>        -0.0199
     21 C16         3.8180   -1.4884    0.5187 C.ar      1 <0>         0.1169
     22 H1          0.3609    0.0210   -2.2795 H         1 <0>         0.0410
     23 H2          1.1291    2.1939   -2.0804 H         1 <0>         0.0433
     24 H3         -0.5823    2.2868   -1.7791 H         1 <0>         0.0433
     25 H4         -1.1411    1.4378    2.4572 H         1 <0>         0.0326
     26 H5          0.2792    0.7764    1.7428 H         1 <0>         0.0326
     27 H6         -1.3478    3.0388    0.4172 H         1 <0>         0.0427
     28 H7         -0.1386    3.3149    1.6602 H         1 <0>         0.0427
     29 H8          0.8702    3.6082   -0.3512 H         1 <0>         0.1220
     30 H9         -1.4639   -1.2865   -2.4053 H         1 <0>         0.0658
     31 H10         2.9267    1.3418   -1.1037 H         1 <0>         0.0622
     32 H11         0.5310   -2.1012   -0.0028 H         1 <0>         0.0622
     33 H12         4.8771    0.2891   -0.0937 H         1 <0>         0.0654
     34 H13         2.4970   -3.1328    0.9928 H         1 <0>         0.0654
     35 H14        -4.5925   -2.4715   -1.2395 H         1 <0>         0.2923
     36 H15        -4.8563   -1.0955    1.6242 H         1 <0>         0.2923
     37 H16         4.6630   -2.9401    1.4322 H         1 <0>         0.2921
@<TRIPOS>BOND
     1    1   14 1
     2    2   15 1
     3    2   35 1
     4    3   18 1
     5    3   36 1
     6    4   21 1
     7    4   37 1
     8    5    8 1
     9    5   11 1
    10    5   29 1
    11    6    7 1
    12    6    8 1
    13    6   12 1
    14    6   22 1
    15    7    9 ar
    16    7   13 ar
    17    8   23 1
    18    8   24 1
    19    9   10 1
    20    9   14 ar
    21   10   11 1
    22   10   25 1
    23   10   26 1
    24   11   27 1
    25   11   28 1
    26   12   16 ar
    27   12   17 ar
    28   13   15 ar
    29   13   30 1
    30   14   18 ar
    31   15   18 ar
    32   16   19 ar
    33   16   31 1
    34   17   20 ar
    35   17   32 1
    36   19   21 ar
    37   19   33 1
    38   20   21 ar
    39   20   34 1
