@<TRIPOS>MOLECULE
DB00243
   64    66     0     0     0
SMALL
USER_CHARGES

@<TRIPOS>ATOM
      1 O1          5.6143    2.0921    1.4189 O.3       1 <0>        -0.3872
      2 O2          4.8317   -0.3450    0.3328 O.3       1 <0>        -0.4857
      3 O3         -3.4947    2.2377    0.7956 O.2       1 <0>        -0.2741
      4 O4          2.7748   -1.8309    1.4763 O.3       1 <0>        -0.4915
      5 N1          2.0361    1.8032    0.4925 N.3       1 <0>        -0.2974
      6 N2         -0.7180    2.3810   -0.1710 N.3       1 <0>        -0.2916
      7 N3         -3.4875    0.4949   -0.7775 N.am      1 <0>        -0.2840
      8 C1          0.9284    1.1805    1.2277 C.3       1 <0>         0.0118
      9 C2          1.6354    3.1195   -0.0191 C.3       1 <0>         0.0118
     10 C3         -0.3174    1.0652    0.3426 C.3       1 <0>         0.0122
     11 C4          0.3902    3.0039   -0.9053 C.3       1 <0>         0.0122
     12 C5          3.2229    1.9142    1.3381 C.3       1 <0>         0.0282
     13 C6         -1.9038    2.2686   -1.0180 C.3       1 <0>         0.0761
     14 C7          4.5079    2.0273    0.5143 C.3       1 <0>         0.1018
     15 C8          4.7237    0.8501   -0.4343 C.3       1 <0>         0.1168
     16 C9         -3.0504    1.6890   -0.2078 C.2       1 <0>         0.2313
     17 C10        -4.5310   -0.3468   -0.3242 C.ar      1 <0>         0.0393
     18 C11         4.3901   -1.4980   -0.2591 C.ar      1 <0>         0.1620
     19 C12        -5.8327    0.1452   -0.2287 C.ar      1 <0>        -0.0290
     20 C13        -4.2579   -1.6693    0.0263 C.ar      1 <0>        -0.0290
     21 C14        -6.8611   -0.6849    0.2172 C.ar      1 <0>        -0.0571
     22 C15        -5.2864   -2.4993    0.4720 C.ar      1 <0>        -0.0571
     23 C16         3.3595   -2.2411    0.3166 C.ar      1 <0>         0.1615
     24 C17        -6.1569    1.5570   -0.5966 C.3       1 <0>        -0.0379
     25 C18        -2.8739   -2.2259   -0.0659 C.3       1 <0>        -0.0379
     26 C19         4.9802   -1.9281   -1.4477 C.ar      1 <0>        -0.0163
     27 C20        -6.5880   -2.0072    0.5676 C.ar      1 <0>        -0.0611
     28 C21         2.9191   -3.4142   -0.2965 C.ar      1 <0>        -0.0163
     29 C22         4.5396   -3.1011   -2.0606 C.ar      1 <0>        -0.0581
     30 C23         3.5092   -3.8441   -1.4850 C.ar      1 <0>        -0.0581
     31 C24         1.7284   -2.6472    1.9988 C.3       1 <0>         0.0790
     32 H1          0.6876    1.7596    2.1298 H         1 <0>         0.0439
     33 H2          1.2066    0.1759    1.5551 H         1 <0>         0.0439
     34 H3          2.4349    3.5565   -0.6272 H         1 <0>         0.0439
     35 H4          1.4338    3.8173    0.8051 H         1 <0>         0.0439
     36 H5         -1.1040    0.6268    0.9664 H         1 <0>         0.0439
     37 H6         -0.1213    0.3645   -0.4806 H         1 <0>         0.0439
     38 H7          0.6337    2.4295   -1.8094 H         1 <0>         0.0439
     39 H8          0.1007    4.0118   -1.2269 H         1 <0>         0.0439
     40 H9          3.1477    2.7553    2.0408 H         1 <0>         0.0453
     41 H10         3.3189    1.0283    1.9812 H         1 <0>         0.0453
     42 H11        -2.2304    3.2622   -1.3493 H         1 <0>         0.0522
     43 H12        -1.7020    1.6790   -1.9206 H         1 <0>         0.0522
     44 H13         4.5124    2.9609   -0.0580 H         1 <0>         0.0640
     45 H14         3.9110    0.7891   -1.1686 H         1 <0>         0.0723
     46 H15         5.6681    0.9832   -0.9748 H         1 <0>         0.0723
     47 H16         6.4222    2.1926    0.8870 H         1 <0>         0.2100
     48 H17        -2.7946    0.0171   -1.3499 H         1 <0>         0.1549
     49 H18        -7.8800   -0.3155    0.2994 H         1 <0>         0.0621
     50 H19        -5.0919   -3.5321    0.7486 H         1 <0>         0.0621
     51 H20        -5.9906    2.2257    0.2525 H         1 <0>         0.0278
     52 H21        -7.2107    1.6487   -0.8853 H         1 <0>         0.0278
     53 H22        -5.5815    1.9024   -1.4613 H         1 <0>         0.0278
     54 H23        -2.5387   -2.2509   -1.1079 H         1 <0>         0.0278
     55 H24        -2.1757   -1.6269    0.5274 H         1 <0>         0.0278
     56 H25        -2.8217   -3.2506    0.3182 H         1 <0>         0.0278
     57 H26         5.7894   -1.3641   -1.9035 H         1 <0>         0.0655
     58 H27        -7.3888   -2.6534    0.9152 H         1 <0>         0.0618
     59 H28         2.1238   -4.0409    0.0924 H         1 <0>         0.0655
     60 H29         5.0002   -3.4370   -2.9851 H         1 <0>         0.0619
     61 H30         3.1671   -4.7576   -1.9631 H         1 <0>         0.0619
     62 H31         1.3817   -2.1740    2.9235 H         1 <0>         0.0660
     63 H32         2.0909   -3.6448    2.2692 H         1 <0>         0.0660
     64 H33         0.8694   -2.6847    1.3199 H         1 <0>         0.0660
@<TRIPOS>BOND
     1    1   14 1
     2    1   47 1
     3    2   15 1
     4    2   18 1
     5    3   16 2
     6    4   23 1
     7    4   31 1
     8    5    8 1
     9    5    9 1
    10    5   12 1
    11    6   10 1
    12    6   11 1
    13    6   13 1
    14    7   16 am
    15    7   17 1
    16    7   48 1
    17    8   10 1
    18    8   32 1
    19    8   33 1
    20    9   11 1
    21    9   34 1
    22    9   35 1
    23   10   36 1
    24   10   37 1
    25   11   38 1
    26   11   39 1
    27   12   14 1
    28   12   40 1
    29   12   41 1
    30   13   16 1
    31   13   42 1
    32   13   43 1
    33   14   15 1
    34   14   44 1
    35   15   45 1
    36   15   46 1
    37   17   19 ar
    38   17   20 ar
    39   18   23 ar
    40   18   26 ar
    41   19   21 ar
    42   19   24 1
    43   20   22 ar
    44   20   25 1
    45   21   27 ar
    46   21   49 1
    47   22   27 ar
    48   22   50 1
    49   23   28 ar
    50   24   51 1
    51   24   52 1
    52   24   53 1
    53   25   54 1
    54   25   55 1
    55   25   56 1
    56   26   29 ar
    57   26   57 1
    58   27   58 1
    59   28   30 ar
    60   28   59 1
    61   29   30 ar
    62   29   60 1
    63   30   61 1
    64   31   62 1
    65   31   63 1
    66   31   64 1
