@<TRIPOS>MOLECULE
DB00391
   46    47     0     0     0
SMALL
USER_CHARGES

@<TRIPOS>ATOM
      1 S1         -5.7397    1.8309   -0.1599 S.o2      1 <0>         0.0560
      2 O1         -0.3543    0.8078   -2.0137 O.2       1 <0>        -0.2701
      3 O2         -1.4394   -2.1603   -0.7750 O.3       1 <0>        -0.4944
      4 O3         -5.3160    3.0706   -0.7953 O.2       1 <0>        -0.1533
      5 O4         -6.9983    1.2113   -0.5501 O.2       1 <0>        -0.1533
      6 N1          3.7376    0.5303    0.2579 N.3       1 <0>        -0.2982
      7 N2         -0.0259    0.7867    0.2804 N.am      1 <0>        -0.3098
      8 N3         -5.7391    2.0513    1.5345 N.pl3     1 <0>        -0.2035
      9 C1          2.3325    0.1105    0.1618 C.3       1 <0>         0.0260
     10 C2          2.1864   -0.8518    1.3425 C.3       1 <0>        -0.0347
     11 C3          3.5938   -1.3710    1.6155 C.3       1 <0>        -0.0387
     12 C4          4.4755   -0.6936    0.5796 C.3       1 <0>        -0.0007
     13 C5          1.3476    1.2694    0.2519 C.3       1 <0>         0.0275
     14 C6          4.2394    1.1510   -0.9621 C.3       1 <0>        -0.0036
     15 C7          5.6966    1.5543   -0.8136 C.3       1 <0>        -0.0523
     16 C8         -0.7594    0.5984   -0.8733 C.2       1 <0>         0.2477
     17 C9         -2.1541    0.1270   -0.6735 C.ar      1 <0>         0.0801
     18 C10        -3.1466    1.0765   -0.5317 C.ar      1 <0>        -0.0197
     19 C11        -2.4222   -1.2264   -0.6346 C.ar      1 <0>         0.1323
     20 C12        -4.4624    0.6542   -0.3423 C.ar      1 <0>         0.1060
     21 C13        -3.7382   -1.6486   -0.4450 C.ar      1 <0>        -0.0173
     22 C14        -4.7583   -0.7084   -0.2989 C.ar      1 <0>        -0.0319
     23 C15        -1.8342   -3.5292   -0.7179 C.3       1 <0>         0.0788
     24 H1          2.1620   -0.4545   -0.7662 H         1 <0>         0.0478
     25 H2          1.8042   -0.3544    2.2422 H         1 <0>         0.0281
     26 H3          1.5033   -1.6739    1.1014 H         1 <0>         0.0281
     27 H4          3.6466   -2.4617    1.5382 H         1 <0>         0.0278
     28 H5          3.9009   -1.0907    2.6300 H         1 <0>         0.0278
     29 H6          4.5848   -1.3471   -0.2957 H         1 <0>         0.0427
     30 H7          5.4676   -0.4955    0.9974 H         1 <0>         0.0427
     31 H8          1.4592    1.9509   -0.5979 H         1 <0>         0.0477
     32 H9          1.4989    1.8499    1.1692 H         1 <0>         0.0477
     33 H10         3.6667    2.0603   -1.1756 H         1 <0>         0.0424
     34 H11         4.1294    0.4895   -1.8306 H         1 <0>         0.0424
     35 H12        -0.4471    0.5889    1.1836 H         1 <0>         0.1491
     36 H13         6.0049    2.1508   -1.6793 H         1 <0>         0.0242
     37 H14         6.3643    0.6885   -0.7667 H         1 <0>         0.0242
     38 H15         5.8539    2.1663    0.0812 H         1 <0>         0.0242
     39 H16        -2.8994    2.1339   -0.5613 H         1 <0>         0.0646
     40 H17        -4.0437   -2.6882   -0.3988 H         1 <0>         0.0655
     41 H18        -5.7753   -1.0585   -0.1458 H         1 <0>         0.0638
     42 H19        -6.5327    1.6717    2.0649 H         1 <0>         0.1442
     43 H20        -5.3843    2.9438    1.8991 H         1 <0>         0.1442
     44 H21        -0.9282   -4.1306   -0.8479 H         1 <0>         0.0660
     45 H22        -2.2490   -3.7898    0.2620 H         1 <0>         0.0660
     46 H23        -2.5085   -3.7905   -1.5406 H         1 <0>         0.0660
@<TRIPOS>BOND
     1    1    4 2
     2    1    5 2
     3    1    8 1
     4    1   20 1
     5    2   16 2
     6    3   19 1
     7    3   23 1
     8    6    9 1
     9    6   12 1
    10    6   14 1
    11    7   13 1
    12    7   16 am
    13    7   35 1
    14    8   42 1
    15    8   43 1
    16    9   10 1
    17    9   13 1
    18    9   24 1
    19   10   11 1
    20   10   25 1
    21   10   26 1
    22   11   12 1
    23   11   27 1
    24   11   28 1
    25   12   29 1
    26   12   30 1
    27   13   31 1
    28   13   32 1
    29   14   15 1
    30   14   33 1
    31   14   34 1
    32   15   36 1
    33   15   37 1
    34   15   38 1
    35   16   17 1
    36   17   18 ar
    37   17   19 ar
    38   18   20 ar
    39   18   39 1
    40   19   21 ar
    41   20   22 ar
    42   21   22 ar
    43   21   40 1
    44   22   41 1
    45   23   44 1
    46   23   45 1
    47   23   46 1
