@<TRIPOS>MOLECULE
DB00146
   73    75     0     0     0
SMALL
USER_CHARGES

@<TRIPOS>ATOM
      1 O1          7.5887   -2.6287    0.0418 O.3       1 <0>        -0.3891
      2 O2         -7.3064   -0.9459   -2.2429 O.3       1 <0>        -0.3915
      3 C1          0.4190    1.4409    0.2493 C.3       1 <0>        -0.0225
      4 C2          1.7141    0.6313    0.5145 C.3       1 <0>        -0.0325
      5 C3         -0.5267    0.2832   -0.1562 C.3       1 <0>        -0.0139
      6 C4          1.2251   -0.6274    1.2612 C.3       1 <0>        -0.0489
      7 C5         -0.2615   -0.7907    0.9038 C.3       1 <0>        -0.0457
      8 C6          0.5394    2.4528   -0.9149 C.3       1 <0>        -0.0465
      9 C7          2.8313    1.3589    1.2485 C.3       1 <0>        -0.0405
     10 C8         -1.9255    0.7695   -0.4317 C.2       1 <0>        -0.0659
     11 C9         -0.0491    2.1890    1.5247 C.3       1 <0>        -0.0588
     12 C10        -0.6719    2.4445   -1.8675 C.3       1 <0>        -0.0488
     13 C11        -2.0012    2.0765   -1.1950 C.3       1 <0>        -0.0312
     14 C12         4.0567    0.4598    1.5170 C.3       1 <0>        -0.0501
     15 C13         3.2220    2.6409    0.5085 C.3       1 <0>        -0.0621
     16 C14        -3.0388    0.1218   -0.0580 C.2       1 <0>        -0.0620
     17 C15         4.6968   -0.1637    0.2701 C.3       1 <0>        -0.0502
     18 C16         5.8686   -1.0736    0.6557 C.3       1 <0>        -0.0245
     19 C17        -4.3672    0.6032   -0.3443 C.2       1 <0>        -0.0583
     20 C18         6.5480   -1.8137   -0.5147 C.3       1 <0>         0.0605
     21 C19        -5.4819   -0.0447    0.0296 C.2       1 <0>        -0.0423
     22 C20        -6.8598    0.4679   -0.3261 C.3       1 <0>        -0.0013
     23 C21         7.1964   -0.8560   -1.5165 C.3       1 <0>        -0.0363
     24 C22         5.5893   -2.7634   -1.2340 C.3       1 <0>        -0.0363
     25 C23        -5.4562   -1.3050    0.7652 C.2       1 <0>        -0.0511
     26 C24        -7.7565   -0.6196   -0.9295 C.3       1 <0>         0.0595
     27 C25        -6.3407   -2.3910    0.2041 C.3       1 <0>        -0.0256
     28 C26        -7.7603   -1.8866   -0.0718 C.3       1 <0>        -0.0226
     29 C27        -4.7294   -1.4864    1.8791 C.2       1 <0>        -0.0952
     30 H1          2.0899    0.3021   -0.4646 H         1 <0>         0.0309
     31 H2         -0.1678   -0.1394   -1.1094 H         1 <0>         0.0351
     32 H3          1.7977   -1.5095    0.9542 H         1 <0>         0.0268
     33 H4          1.3287   -0.5306    2.3480 H         1 <0>         0.0268
     34 H5         -0.4704   -1.7958    0.5221 H         1 <0>         0.0271
     35 H6         -0.8777   -0.6445    1.7986 H         1 <0>         0.0271
     36 H7          1.4239    2.2528   -1.5294 H         1 <0>         0.0271
     37 H8          0.6495    3.4739   -0.5319 H         1 <0>         0.0271
     38 H9          2.4759    1.6632    2.2418 H         1 <0>         0.0301
     39 H10        -0.1126    1.5286    2.3953 H         1 <0>         0.0235
     40 H11        -1.0376    2.6396    1.3957 H         1 <0>         0.0235
     41 H12         0.6259    3.0073    1.7921 H         1 <0>         0.0235
     42 H13        -0.4759    1.7246   -2.6739 H         1 <0>         0.0268
     43 H14        -0.7596    3.4236   -2.3535 H         1 <0>         0.0268
     44 H15        -2.2933    2.8863   -0.5162 H         1 <0>         0.0310
     45 H16        -2.7463    2.0233   -1.9969 H         1 <0>         0.0310
     46 H17         3.7685   -0.3423    2.2078 H         1 <0>         0.0268
     47 H18         4.8162    1.0477    2.0493 H         1 <0>         0.0268
     48 H19         2.4745    3.4287    0.6036 H         1 <0>         0.0233
     49 H20         4.1386    3.0575    0.9439 H         1 <0>         0.0233
     50 H21         3.4312    2.4590   -0.5498 H         1 <0>         0.0233
     51 H22        -2.8963   -0.8409    0.4130 H         1 <0>         0.0617
     52 H23         3.9544   -0.7546   -0.2715 H         1 <0>         0.0266
     53 H24         5.0441    0.6292   -0.3997 H         1 <0>         0.0266
     54 H25         6.6259   -0.4833    1.1895 H         1 <0>         0.0293
     55 H26         5.5244   -1.8185    1.3867 H         1 <0>         0.0293
     56 H27        -4.4879    1.5387   -0.8802 H         1 <0>         0.0620
     57 H28        -6.7867    1.3035   -1.0334 H         1 <0>         0.0338
     58 H29        -7.3293    0.8563    0.5870 H         1 <0>         0.0338
     59 H30         7.7722   -1.4068   -2.2693 H         1 <0>         0.0257
     60 H31         6.4556   -0.2433   -2.0390 H         1 <0>         0.0257
     61 H32         7.9059   -0.1906   -1.0120 H         1 <0>         0.0257
     62 H33         4.7984   -2.2276   -1.7676 H         1 <0>         0.0257
     63 H34         6.1246   -3.3832   -1.9628 H         1 <0>         0.0257
     64 H35         5.1232   -3.4566   -0.5245 H         1 <0>         0.0257
     65 H36        -8.7791   -0.2402   -1.0284 H         1 <0>         0.0596
     66 H37        -5.8921   -2.7747   -0.7210 H         1 <0>         0.0314
     67 H38        -6.4002   -3.2442    0.8913 H         1 <0>         0.0314
     68 H39         8.0360   -3.0910   -0.6875 H         1 <0>         0.2101
     69 H40        -8.3219   -2.6799   -0.5791 H         1 <0>         0.0293
     70 H41        -8.2655   -1.6807    0.8802 H         1 <0>         0.0293
     71 H42        -4.7434   -2.4380    2.4015 H         1 <0>         0.0538
     72 H43        -4.1403   -0.6971    2.3349 H         1 <0>         0.0538
     73 H44        -6.3637   -1.1765   -2.2050 H         1 <0>         0.2098
@<TRIPOS>BOND
     1    1   20 1
     2    1   68 1
     3    2   26 1
     4    2   73 1
     5    3    4 1
     6    3    5 1
     7    3    8 1
     8    3   11 1
     9    4    6 1
    10    4    9 1
    11    4   30 1
    12    5    7 1
    13    5   10 1
    14    5   31 1
    15    6    7 1
    16    6   32 1
    17    6   33 1
    18    7   34 1
    19    7   35 1
    20    8   12 1
    21    8   36 1
    22    8   37 1
    23    9   14 1
    24    9   15 1
    25    9   38 1
    26   10   13 1
    27   10   16 2
    28   11   39 1
    29   11   40 1
    30   11   41 1
    31   12   13 1
    32   12   42 1
    33   12   43 1
    34   13   44 1
    35   13   45 1
    36   14   17 1
    37   14   46 1
    38   14   47 1
    39   15   48 1
    40   15   49 1
    41   15   50 1
    42   16   19 1
    43   16   51 1
    44   17   18 1
    45   17   52 1
    46   17   53 1
    47   18   20 1
    48   18   54 1
    49   18   55 1
    50   19   21 2
    51   19   56 1
    52   20   23 1
    53   20   24 1
    54   21   22 1
    55   21   25 1
    56   22   26 1
    57   22   57 1
    58   22   58 1
    59   23   59 1
    60   23   60 1
    61   23   61 1
    62   24   62 1
    63   24   63 1
    64   24   64 1
    65   25   27 1
    66   25   29 2
    67   26   28 1
    68   26   65 1
    69   27   28 1
    70   27   66 1
    71   27   67 1
    72   28   69 1
    73   28   70 1
    74   29   71 1
    75   29   72 1
