@<TRIPOS>MOLECULE
DB00459
   50    50     0     0     0
SMALL
USER_CHARGES

@<TRIPOS>ATOM
      1 O1          6.4367    0.1146    1.4174 O.3       1 <0>        -0.4948
      2 O2         -9.0137   -0.7325    2.3418 O.3       1 <0>        -0.4775
      3 O3         -9.1462   -0.2257    0.1248 O.2       1 <0>        -0.2458
      4 C1          3.2976   -0.8859   -0.1924 C.ar      1 <0>        -0.0367
      5 C2          2.6204    0.3260   -0.1724 C.ar      1 <0>        -0.0187
      6 C3          4.5840   -0.9640    0.3416 C.ar      1 <0>        -0.0053
      7 C4          3.2058    1.4613    0.3720 C.ar      1 <0>        -0.0396
      8 C5          5.1812    0.1707    0.8906 C.ar      1 <0>         0.1235
      9 C6          4.4922    1.3834    0.9060 C.ar      1 <0>        -0.0162
     10 C7          2.6682   -2.1122   -0.7793 C.3       1 <0>        -0.0388
     11 C8          1.2620    0.4117   -0.7351 C.2       1 <0>        -0.0538
     12 C9          5.3314   -2.2594    0.3306 C.3       1 <0>        -0.0360
     13 C10         2.5009    2.7797    0.4070 C.3       1 <0>        -0.0390
     14 C11         0.1288    0.2183   -0.0398 C.2       1 <0>        -0.0583
     15 C12        -1.2176    0.2954   -0.6035 C.2       1 <0>        -0.0504
     16 C13         7.5228    0.3799    0.5322 C.3       1 <0>         0.0788
     17 C14        -1.2176    0.5726   -2.0838 C.3       1 <0>        -0.0397
     18 C15        -2.3076    0.0878    0.1634 C.2       1 <0>        -0.0588
     19 C16        -3.6948    0.1073   -0.2596 C.2       1 <0>        -0.0613
     20 C17        -4.7133   -0.1136    0.5899 C.2       1 <0>        -0.0586
     21 C18        -6.1443   -0.1213    0.2647 C.2       1 <0>        -0.0437
     22 C19        -6.5295    0.1704   -1.1631 C.3       1 <0>        -0.0395
     23 C20        -7.0168   -0.3646    1.2633 C.2       1 <0>         0.0252
     24 C21        -8.4903   -0.4136    1.1337 C.2       1 <0>         0.3298
     25 H1          4.9665    2.2613    1.3381 H         1 <0>         0.0657
     26 H2          3.3978   -2.7237   -1.3202 H         1 <0>         0.0278
     27 H3          2.2155   -2.7168    0.0134 H         1 <0>         0.0278
     28 H4          1.8963   -1.8861   -1.5213 H         1 <0>         0.0278
     29 H5          1.2689    0.6524   -1.7942 H         1 <0>         0.0624
     30 H6          5.7173   -2.4656   -0.6731 H         1 <0>         0.0279
     31 H7          6.1801   -2.2632    1.0222 H         1 <0>         0.0279
     32 H8          4.6921   -3.0889    0.6515 H         1 <0>         0.0279
     33 H9          1.6284    2.7315    1.0667 H         1 <0>         0.0278
     34 H10         3.1500    3.5779    0.7842 H         1 <0>         0.0278
     35 H11         2.1832    3.0780   -0.5977 H         1 <0>         0.0278
     36 H12         0.1989   -0.0160    1.0211 H         1 <0>         0.0620
     37 H13         7.4752    1.4116    0.1698 H         1 <0>         0.0660
     38 H14         7.5170   -0.3145   -0.3140 H         1 <0>         0.0660
     39 H15         8.4561    0.2471    1.0862 H         1 <0>         0.0660
     40 H16        -0.7693    1.5483   -2.3044 H         1 <0>         0.0278
     41 H17        -0.6850   -0.2100   -2.6366 H         1 <0>         0.0278
     42 H18        -2.2228    0.6051   -2.5114 H         1 <0>         0.0278
     43 H19        -2.1562   -0.1199    1.2229 H         1 <0>         0.0620
     44 H20        -3.8978    0.3079   -1.3045 H         1 <0>         0.0618
     45 H21        -4.4714   -0.3135    1.6341 H         1 <0>         0.0620
     46 H22        -7.5966    0.1813   -1.3714 H         1 <0>         0.0278
     47 H23        -6.0961   -0.5827   -1.8315 H         1 <0>         0.0278
     48 H24        -6.1535    1.1559   -1.4623 H         1 <0>         0.0278
     49 H25        -6.6422   -0.5555    2.2681 H         1 <0>         0.0691
     50 H26        -9.9928   -0.7883    2.3144 H         1 <0>         0.2954
@<TRIPOS>BOND
     1    1    8 1
     2    1   16 1
     3    2   24 1
     4    2   50 1
     5    3   24 2
     6    4    5 ar
     7    4    6 ar
     8    4   10 1
     9    5    7 ar
    10    5   11 1
    11    6    8 ar
    12    6   12 1
    13    7    9 ar
    14    7   13 1
    15    8    9 ar
    16    9   25 1
    17   10   26 1
    18   10   27 1
    19   10   28 1
    20   11   14 2
    21   11   29 1
    22   12   30 1
    23   12   31 1
    24   12   32 1
    25   13   33 1
    26   13   34 1
    27   13   35 1
    28   14   15 1
    29   14   36 1
    30   15   17 1
    31   15   18 2
    32   16   37 1
    33   16   38 1
    34   16   39 1
    35   17   40 1
    36   17   41 1
    37   17   42 1
    38   18   19 1
    39   18   43 1
    40   19   20 2
    41   19   44 1
    42   20   21 1
    43   20   45 1
    44   21   22 1
    45   21   23 2
    46   22   46 1
    47   22   47 1
    48   22   48 1
    49   23   24 1
    50   23   49 1
