@<TRIPOS>MOLECULE
DB00213
   41    43     0     0     0
SMALL
USER_CHARGES

@<TRIPOS>ATOM
      1 S1         -0.3229    0.9920   -0.6905 S.o       1 <0>         0.0955
      2 F1          8.8878    0.7451    0.2500 F         1 <0>        -0.1663
      3 F2          7.7841    1.1580   -1.5777 F         1 <0>        -0.1663
      4 O1         -3.2007   -1.2612   -0.3931 O.3       1 <0>        -0.4898
      5 O2          7.0864   -0.5058   -0.2102 O.3       1 <0>        -0.4342
      6 O3         -0.3034    2.5021   -0.5578 O.2       1 <0>        -0.2488
      7 O4         -5.8622   -0.4632   -0.2969 O.3       1 <0>        -0.4913
      8 N1          2.4678    0.9937   -0.8441 N.pl3     1 <0>        -0.3309
      9 N2          1.5956   -0.7465    0.2291 N.2       1 <0>        -0.2200
     10 N3         -2.8983    1.8879    1.4265 N.ar      1 <0>        -0.2551
     11 C1          3.5381    0.2312   -0.4524 C.2       1 <0>         0.0704
     12 C2          1.3305    0.3686   -0.4141 C.cat     1 <0>         0.1981
     13 C3          2.9677   -0.8490    0.2155 C.2       1 <0>         0.0903
     14 C4         -1.1645    0.3389    0.7805 C.3       1 <0>         0.0767
     15 C5         -2.6152    0.7241    0.8065 C.ar      1 <0>         0.0990
     16 C6          4.9145    0.3887   -0.6198 C.2       1 <0>         0.0057
     17 C7          3.8049   -1.8402    0.7548 C.2       1 <0>        -0.0308
     18 C8         -3.5546   -0.0995    0.2164 C.ar      1 <0>         0.1837
     19 C9          5.7326   -0.6073   -0.0769 C.2       1 <0>         0.1289
     20 C10         5.1898   -1.7028    0.5986 C.2       1 <0>        -0.0176
     21 C11        -4.8853    0.3008    0.2657 C.ar      1 <0>         0.1647
     22 C12        -5.2237    1.4937    0.8948 C.ar      1 <0>         0.0018
     23 C13        -4.2022    2.2443    1.4546 C.ar      1 <0>         0.0316
     24 C14        -3.7497   -2.4673    0.1024 C.3       1 <0>         0.0790
     25 C15         7.6377    0.8024   -0.2777 C.3       1 <0>         0.3893
     26 C16        -6.1939   -0.2241   -1.6499 C.3       1 <0>         0.0790
     27 H1         -0.6599    0.7446    1.6652 H         1 <0>         0.0471
     28 H2         -1.0443   -0.7490    0.8118 H         1 <0>         0.0471
     29 H3          2.5138    1.8631   -1.3587 H         1 <0>         0.1679
     30 H4          5.2960    1.2394   -1.1722 H         1 <0>         0.0675
     31 H5          3.3928   -2.6952    1.2813 H         1 <0>         0.0641
     32 H6          5.8465   -2.4645    1.0124 H         1 <0>         0.0655
     33 H7         -6.2528    1.8314    0.9494 H         1 <0>         0.0670
     34 H8         -4.4135    3.1826    1.9566 H         1 <0>         0.0831
     35 H9         -4.6440   -2.7383   -0.4658 H         1 <0>         0.0660
     36 H10        -3.9859   -2.4071    1.1708 H         1 <0>         0.0660
     37 H11        -3.0099   -3.2612   -0.0364 H         1 <0>         0.0660
     38 H12         7.0774    1.5650    0.2746 H         1 <0>         0.1520
     39 H13        -6.5749    0.7938   -1.7807 H         1 <0>         0.0660
     40 H14        -6.9772   -0.9278   -1.9449 H         1 <0>         0.0660
     41 H15        -5.3254   -0.3814   -2.2976 H         1 <0>         0.0660
@<TRIPOS>BOND
     1    1    6 2
     2    1   12 1
     3    1   14 1
     4    2   25 1
     5    3   25 1
     6    4   18 1
     7    4   24 1
     8    5   19 1
     9    5   25 1
    10    7   21 1
    11    7   26 1
    12    8   11 1
    13    8   12 2
    14    8   29 1
    15    9   12 1
    16    9   13 2
    17   10   15 ar
    18   10   23 ar
    19   11   13 1
    20   11   16 2
    21   13   17 2
    22   14   15 1
    23   14   27 1
    24   14   28 1
    25   15   18 ar
    26   16   19 1
    27   16   30 1
    28   17   20 1
    29   17   31 1
    30   18   21 ar
    31   19   20 2
    32   20   32 1
    33   21   22 ar
    34   22   23 ar
    35   22   33 1
    36   23   34 1
    37   24   35 1
    38   24   36 1
    39   24   37 1
    40   25   38 1
    41   26   39 1
    42   26   40 1
    43   26   41 1
