@<TRIPOS>MOLECULE
DB00709
   26    27     0     0     0
SMALL
USER_CHARGES

@<TRIPOS>ATOM
      1 S1         -2.9384   -1.3194   -0.9167 S.3       1 <0>        -0.1230
      2 O1         -1.4224    0.0869    0.7431 O.3       1 <0>        -0.3397
      3 O2         -3.0514    1.7369   -0.7950 O.3       1 <0>        -0.3916
      4 O3          1.5545   -2.7064    0.6543 O.2       1 <0>        -0.2444
      5 N1          0.7414   -0.5954    0.2074 N.am      1 <0>        -0.2717
      6 N2          3.0846   -1.0547    0.3680 N.2       1 <0>        -0.1783
      7 N3          4.6472    0.6427    0.0751 N.pl3     1 <0>        -0.3430
      8 C1         -0.6347   -1.0019    0.2482 C.3       1 <0>         0.1498
      9 C2         -1.1524   -1.3650   -1.1356 C.3       1 <0>         0.0418
     10 C3         -2.8038   -0.2355    0.5299 C.3       1 <0>         0.1297
     11 C4         -3.5808    1.0525    0.3289 C.3       1 <0>         0.0798
     12 C5          1.0137    0.7286   -0.0482 C.2       1 <0>         0.0152
     13 C6          1.7809   -1.5175    0.4224 C.2       1 <0>         0.3521
     14 C7          2.2602    1.1935   -0.1035 C.2       1 <0>        -0.0056
     15 C8          3.3445    0.2032    0.1249 C.2       1 <0>         0.1230
     16 H1         -0.7414   -1.8489    0.9398 H         1 <0>         0.0848
     17 H2         -0.8822   -0.6170   -1.8881 H         1 <0>         0.0421
     18 H3         -0.8007   -2.3442   -1.4717 H         1 <0>         0.0421
     19 H4         -3.1746   -0.7685    1.4117 H         1 <0>         0.0736
     20 H5         -3.4737    1.7105    1.1976 H         1 <0>         0.0592
     21 H6         -4.6470    0.8687    0.1634 H         1 <0>         0.0592
     22 H7          0.1889    1.4061   -0.2348 H         1 <0>         0.0812
     23 H8          2.4971    2.2279   -0.3139 H         1 <0>         0.0666
     24 H9         -2.1093    1.9028   -0.6214 H         1 <0>         0.2095
     25 H10         4.8810    1.6124   -0.1110 H         1 <0>         0.1437
     26 H11         5.4188    0.0018    0.2252 H         1 <0>         0.1437
@<TRIPOS>BOND
     1    1    9 1
     2    1   10 1
     3    2    8 1
     4    2   10 1
     5    3   11 1
     6    3   24 1
     7    4   13 2
     8    5    8 1
     9    5   12 1
    10    5   13 am
    11    6   13 1
    12    6   15 2
    13    7   15 1
    14    7   25 1
    15    7   26 1
    16    8    9 1
    17    8   16 1
    18    9   17 1
    19    9   18 1
    20   10   11 1
    21   10   19 1
    22   11   20 1
    23   11   21 1
    24   12   14 2
    25   12   22 1
    26   14   15 1
    27   14   23 1
