@<TRIPOS>MOLECULE
DB00692
   40    42     0     0     0
SMALL
USER_CHARGES

@<TRIPOS>ATOM
      1 O1          3.4461    3.9031   -0.2942 O.3       1 <0>        -0.8736
      2 N1          0.7750    0.1475    0.8488 N.pl3     1 <0>        -0.2885
      3 N2         -0.9529   -2.7724    0.7207 N.pl3     1 <0>        -0.2744
      4 N3          0.6266   -2.2734   -0.7664 N.pl3     1 <0>        -0.2356
      5 C1          0.1405   -2.0861    0.4463 C.cat     1 <0>         0.2564
      6 C2          0.7663   -1.1827    1.4055 C.3       1 <0>         0.1157
      7 C3         -1.3160   -3.5753   -0.4513 C.3       1 <0>         0.1197
      8 C4         -0.2271   -3.2301   -1.4776 C.3       1 <0>         0.1150
      9 C5         -0.5035    0.6958    0.5184 C.ar      1 <0>         0.0345
     10 C6          2.0265    0.7157    0.4503 C.ar      1 <0>         0.0339
     11 C7         -0.6532    1.4042   -0.6626 C.ar      1 <0>        -0.0401
     12 C8         -1.5665    0.5071    1.3863 C.ar      1 <0>        -0.0401
     13 C9          2.1223    2.0854    0.2704 C.ar      1 <0>        -0.0481
     14 C10         3.1137   -0.1179    0.2494 C.ar      1 <0>        -0.0404
     15 C11        -2.9812    1.7574   -0.1213 C.ar      1 <0>        -0.0503
     16 C12        -1.9006    1.9387   -0.9846 C.ar      1 <0>        -0.0571
     17 C13        -2.8139    1.0417    1.0642 C.ar      1 <0>        -0.0571
     18 C14         3.3414    2.6377   -0.1221 C.ar      1 <0>        -0.1067
     19 C15         4.3329    0.4347   -0.1432 C.ar      1 <0>        -0.0606
     20 C16         4.4467    1.8124   -0.3290 C.ar      1 <0>        -0.0694
     21 C17        -4.3148    2.3291   -0.4654 C.3       1 <0>        -0.0397
     22 H1          1.7404   -1.5723    1.7163 H         1 <0>         0.0591
     23 H2          0.2184   -1.1996    2.3557 H         1 <0>         0.0591
     24 H3         -2.3115   -3.2857   -0.7985 H         1 <0>         0.0782
     25 H4         -1.3067   -4.6358   -0.1856 H         1 <0>         0.0782
     26 H5          0.3619   -4.1068   -1.7602 H         1 <0>         0.0764
     27 H6         -0.6427   -2.7555   -2.3705 H         1 <0>         0.0764
     28 H7         -1.4146   -2.7055    1.6206 H         1 <0>         0.3037
     29 H8          1.4561   -1.7970   -1.0975 H         1 <0>         0.2911
     30 H9          0.1477    1.5209   -1.3861 H         1 <0>         0.0636
     31 H10        -1.4743   -0.0154    2.3321 H         1 <0>         0.0636
     32 H11         1.2836    2.7462    0.4802 H         1 <0>         0.0630
     33 H12         3.0872   -1.1974    0.3342 H         1 <0>         0.0636
     34 H13        -2.0219    2.4829   -1.9176 H         1 <0>         0.0621
     35 H14        -3.6472    0.8981    1.7471 H         1 <0>         0.0621
     36 H15         5.1915   -0.2083   -0.3139 H         1 <0>         0.0618
     37 H16         5.4090    2.2175   -0.6380 H         1 <0>         0.0612
     38 H17        -4.8996    1.6009   -1.0361 H         1 <0>         0.0278
     39 H18        -4.8738    2.5987    0.4372 H         1 <0>         0.0278
     40 H19        -4.2118    3.2416   -1.0624 H         1 <0>         0.0278
@<TRIPOS>BOND
     1    1   18 1
     2    2    6 1
     3    2    9 1
     4    2   10 1
     5    3    5 2
     6    3    7 1
     7    3   28 1
     8    4    5 1
     9    4    8 1
    10    4   29 1
    11    5    6 1
    12    6   22 1
    13    6   23 1
    14    7    8 1
    15    7   24 1
    16    7   25 1
    17    8   26 1
    18    8   27 1
    19    9   11 ar
    20    9   12 ar
    21   10   13 ar
    22   10   14 ar
    23   11   16 ar
    24   11   30 1
    25   12   17 ar
    26   12   31 1
    27   13   18 ar
    28   13   32 1
    29   14   19 ar
    30   14   33 1
    31   15   16 ar
    32   15   17 ar
    33   15   21 1
    34   16   34 1
    35   17   35 1
    36   18   20 ar
    37   19   20 ar
    38   19   36 1
    39   20   37 1
    40   21   38 1
    41   21   39 1
    42   21   40 1
