@<TRIPOS>MOLECULE
DB00537
   42    45     0     0     0
SMALL
USER_CHARGES

@<TRIPOS>ATOM
      1 F1          1.5494   -3.1054    0.6258 F         1 <0>        -0.2035
      2 O1         -3.4783   -3.3631    0.4547 O.2       1 <0>        -0.2865
      3 O2         -5.9992   -2.7319    0.2076 O.co2     1 <0>        -0.5445
      4 O3         -6.5001   -0.5549   -0.2850 O.co2     1 <0>        -0.5445
      5 N1         -2.5781    0.5327   -0.3449 N.pl3     1 <0>        -0.3427
      6 N2          2.2009   -0.4647    0.0863 N.pl3     1 <0>        -0.3175
      7 N3          4.8576    0.4477   -0.1673 N.4       1 <0>         0.2292
      8 C1         -2.3378    1.9612   -0.6419 C.3       1 <0>         0.0347
      9 C2         -2.9987    3.0311    0.1625 C.3       1 <0>        -0.0302
     10 C3         -1.5193    2.8068    0.2766 C.3       1 <0>        -0.0302
     11 C4         -1.5048   -0.3717   -0.1013 C.ar      1 <0>         0.0549
     12 C5         -3.8795    0.0721   -0.3041 C.2       1 <0>         0.0179
     13 C6          3.0962   -1.1010   -0.8919 C.3       1 <0>         0.0525
     14 C7          2.5291    0.9166    0.4602 C.3       1 <0>         0.0525
     15 C8          4.5467   -0.9839   -0.4470 C.3       1 <0>        -0.0175
     16 C9          3.9842    1.0244    0.8944 C.3       1 <0>        -0.0175
     17 C10         0.8675   -0.8901    0.1173 C.ar      1 <0>         0.0677
     18 C11        -1.7864   -1.7271    0.1786 C.ar      1 <0>         0.0486
     19 C12        -0.1585    0.0272   -0.1267 C.ar      1 <0>        -0.0136
     20 C13        -4.2517   -1.1860   -0.0489 C.2       1 <0>         0.0607
     21 C14        -3.1971   -2.1952    0.2167 C.2       1 <0>         0.1983
     22 C15         0.5687   -2.2219    0.3913 C.ar      1 <0>         0.1451
     23 C16        -0.7576   -2.6449    0.4229 C.ar      1 <0>        -0.0118
     24 C17        -5.7251   -1.5233   -0.0414 C.2       1 <0>         0.0767
     25 H1         -2.2290    2.1401   -1.7069 H         1 <0>         0.0528
     26 H2         -3.6093    2.7543    1.0132 H         1 <0>         0.0286
     27 H3         -3.3353    3.9195   -0.3576 H         1 <0>         0.0286
     28 H4         -0.8628    3.5463   -0.1659 H         1 <0>         0.0286
     29 H5         -1.1670    2.4052    1.2191 H         1 <0>         0.0286
     30 H6          2.9617   -0.6131   -1.8661 H         1 <0>         0.0516
     31 H7          2.8693   -2.1622   -1.0378 H         1 <0>         0.0516
     32 H8          1.9036    1.2548    1.2956 H         1 <0>         0.0516
     33 H9          2.3490    1.5858   -0.3909 H         1 <0>         0.0516
     34 H10        -4.5971    0.8571   -0.5166 H         1 <0>         0.0817
     35 H11         4.7419   -1.5444    0.4736 H         1 <0>         0.0829
     36 H12         5.2361   -1.3167   -1.2282 H         1 <0>         0.0829
     37 H13         4.2876    2.0663    1.0325 H         1 <0>         0.0829
     38 H14         4.1810    0.4642    1.8149 H         1 <0>         0.0829
     39 H15         5.8428    0.5329    0.1183 H         1 <0>         0.2015
     40 H16         4.7678    0.9999   -1.0316 H         1 <0>         0.2015
     41 H17         0.1013    1.0436   -0.3984 H         1 <0>         0.0658
     42 H18        -0.9700   -3.6883    0.6385 H         1 <0>         0.0654
@<TRIPOS>BOND
     1    1   22 1
     2    2   21 2
     3    3   24 2
     4    4   24 1
     5    5    8 1
     6    5   11 1
     7    5   12 2
     8    6   13 1
     9    6   14 1
    10    6   17 1
    11    7   15 1
    12    7   16 1
    13    7   39 1
    14    7   40 1
    15    8    9 1
    16    8   10 1
    17    8   25 1
    18    9   10 1
    19    9   26 1
    20    9   27 1
    21   10   28 1
    22   10   29 1
    23   11   18 ar
    24   11   19 ar
    25   12   20 1
    26   12   34 1
    27   13   15 1
    28   13   30 1
    29   13   31 1
    30   14   16 1
    31   14   32 1
    32   14   33 1
    33   15   35 1
    34   15   36 1
    35   16   37 1
    36   16   38 1
    37   17   19 ar
    38   17   22 ar
    39   18   21 1
    40   18   23 ar
    41   19   41 1
    42   20   21 1
    43   20   24 1
    44   22   23 ar
    45   23   42 1
