@<TRIPOS>MOLECULE
DB00562
   40    42     0     0     0
SMALL
USER_CHARGES

@<TRIPOS>ATOM
      1 Cl1        -5.0854   -3.1595    0.2044 Cl        1 <0>        -0.0814
      2 S1         -2.0675    2.2960   -0.3359 S.o2      1 <0>         0.1824
      3 S2         -6.5294   -0.6323   -1.2037 S.o2      1 <0>         0.0574
      4 S3          2.2706    0.3632    0.1250 S.3       1 <0>        -0.1438
      5 O1         -1.9116    2.5116   -1.7629 O.2       1 <0>        -0.1250
      6 O2         -2.8217    3.2357    0.4738 O.2       1 <0>        -0.1250
      7 O3         -6.6706    0.3875   -2.2308 O.2       1 <0>        -0.1532
      8 O4         -6.8258   -2.0223   -1.5123 O.2       1 <0>        -0.1532
      9 N1         -0.9727   -0.2094    0.9185 N.pl3     1 <0>        -0.2002
     10 N2         -0.5956    2.0900    0.3296 N.2       1 <0>         0.0914
     11 N3         -7.4327   -0.1668    0.1686 N.pl3     1 <0>        -0.2035
     12 C1         -2.9175    0.7574   -0.1836 C.ar      1 <0>         0.1808
     13 C2         -2.2757   -0.3203    0.4252 C.ar      1 <0>         0.1490
     14 C3         -4.2175    0.6629   -0.6814 C.ar      1 <0>        -0.0010
     15 C4         -4.8992   -0.5456   -0.5680 C.ar      1 <0>         0.1254
     16 C5         -0.2389    0.9526    0.8415 C.2       1 <0>         0.3278
     17 C6         -2.9777   -1.5270    0.5299 C.ar      1 <0>         0.0053
     18 C7         -4.2809   -1.6396    0.0368 C.ar      1 <0>         0.0712
     19 C8          1.1522    0.8852    1.4314 C.3       1 <0>         0.0995
     20 C9          3.8182    0.3624    1.0640 C.3       1 <0>         0.0193
     21 C10         4.9936   -0.0472    0.2200 C.ar      1 <0>        -0.0375
     22 C11         5.7138    0.9209   -0.4677 C.ar      1 <0>        -0.0578
     23 C12         5.3444   -1.3884    0.1385 C.ar      1 <0>        -0.0578
     24 C13         6.8039    0.5409   -1.2508 C.ar      1 <0>        -0.0615
     25 C14         6.4344   -1.7683   -0.6445 C.ar      1 <0>        -0.0615
     26 C15         7.1641   -0.8037   -1.3392 C.ar      1 <0>        -0.0617
     27 H1         -4.6817    1.5307   -1.1409 H         1 <0>         0.0659
     28 H2         -0.5742   -1.0398    1.3439 H         1 <0>         0.2983
     29 H3         -2.4995   -2.3840    1.0014 H         1 <0>         0.0674
     30 H4          1.1730    0.1720    2.2611 H         1 <0>         0.0501
     31 H5          1.4403    1.8734    1.8035 H         1 <0>         0.0501
     32 H6          3.7216   -0.3178    1.9182 H         1 <0>         0.0425
     33 H7          3.9903    1.3634    1.4768 H         1 <0>         0.0425
     34 H8         -7.8823    0.7569    0.1532 H         1 <0>         0.1442
     35 H9         -7.9860   -0.8903    0.6437 H         1 <0>         0.1442
     36 H10         5.4417    1.9709   -0.4071 H         1 <0>         0.0621
     37 H11         4.7827   -2.1485    0.6745 H         1 <0>         0.0621
     38 H12         7.3719    1.2920   -1.7919 H         1 <0>         0.0618
     39 H13         6.7149   -2.8153   -0.7137 H         1 <0>         0.0618
     40 H14         8.0126   -1.0995   -1.9490 H         1 <0>         0.0618
@<TRIPOS>BOND
     1    1   18 1
     2    2    5 2
     3    2    6 2
     4    2   10 1
     5    2   12 1
     6    3    7 2
     7    3    8 2
     8    3   11 1
     9    3   15 1
    10    4   19 1
    11    4   20 1
    12    9   13 1
    13    9   16 1
    14    9   28 1
    15   10   16 2
    16   11   34 1
    17   11   35 1
    18   12   13 ar
    19   12   14 ar
    20   13   17 ar
    21   14   15 ar
    22   14   27 1
    23   15   18 ar
    24   16   19 1
    25   17   18 ar
    26   17   29 1
    27   19   30 1
    28   19   31 1
    29   20   21 1
    30   20   32 1
    31   20   33 1
    32   21   22 ar
    33   21   23 ar
    34   22   24 ar
    35   22   36 1
    36   23   25 ar
    37   23   37 1
    38   24   26 ar
    39   24   38 1
    40   25   26 ar
    41   25   39 1
    42   26   40 1
