@<TRIPOS>MOLECULE
DB00674
   42    45     0     0     0
SMALL
USER_CHARGES

@<TRIPOS>ATOM
      1 O1         -1.7917    0.0198   -1.0598 O.3       1 <0>        -0.4836
      2 O2         -3.3547    1.9535    0.5523 O.3       1 <0>        -0.3876
      3 O3         -2.5591   -2.7307   -1.0438 O.3       1 <0>        -0.4914
      4 N1          3.2710   -0.1488    0.3772 N.3       1 <0>        -0.3011
      5 C1          0.2549    0.9606   -0.1089 C.3       1 <0>         0.0558
      6 C2         -0.8658    1.1301   -1.1846 C.3       1 <0>         0.1161
      7 C3          0.1907   -0.5315   -0.0015 C.ar      1 <0>         0.0158
      8 C4          1.5943    1.4895   -0.6623 C.3       1 <0>        -0.0235
      9 C5         -1.6249    2.4555   -1.0777 C.3       1 <0>         0.0151
     10 C6         -0.1085    1.6129    1.2117 C.2       1 <0>        -0.0715
     11 C7         -1.0120   -0.9820   -0.5393 C.ar      1 <0>         0.1667
     12 C8          2.8410    1.2379    0.2007 C.3       1 <0>         0.0001
     13 C9          1.0930   -1.4235    0.5653 C.ar      1 <0>        -0.0255
     14 C10        -2.1720    2.7157    0.3283 C.3       1 <0>         0.0768
     15 C11         2.3827   -0.9724    1.1998 C.3       1 <0>         0.0242
     16 C12        -1.1948    2.3733    1.4064 C.2       1 <0>        -0.0588
     17 C13        -1.3784   -2.3129   -0.5236 C.ar      1 <0>         0.1618
     18 C14         0.7344   -2.7831    0.5787 C.ar      1 <0>        -0.0534
     19 C15        -0.4867   -3.2218    0.0402 C.ar      1 <0>        -0.0160
     20 C16         3.7057   -0.7988   -0.8526 C.3       1 <0>        -0.0124
     21 C17        -3.6857   -2.7657   -0.1654 C.3       1 <0>         0.0790
     22 H1         -0.4506    1.0591   -2.2011 H         1 <0>         0.0746
     23 H2          1.5089    2.5760   -0.8059 H         1 <0>         0.0290
     24 H3          1.7757    1.0790   -1.6645 H         1 <0>         0.0290
     25 H4         -2.4577    2.4509   -1.7914 H         1 <0>         0.0329
     26 H5         -0.9455    3.2712   -1.3549 H         1 <0>         0.0329
     27 H6          0.5380    1.4309    2.0666 H         1 <0>         0.0580
     28 H7          3.6739    1.7924   -0.2525 H         1 <0>         0.0427
     29 H8          2.7145    1.7034    1.1857 H         1 <0>         0.0427
     30 H9         -2.4460    3.7741    0.4025 H         1 <0>         0.0639
     31 H10         2.1482   -0.4514    2.1371 H         1 <0>         0.0476
     32 H11         2.9553   -1.8545    1.5166 H         1 <0>         0.0476
     33 H12        -1.3862    2.7689    2.4002 H         1 <0>         0.0595
     34 H13         1.4021   -3.5202    1.0198 H         1 <0>         0.0622
     35 H14        -0.7311   -4.2807    0.0714 H         1 <0>         0.0655
     36 H15         2.8898   -0.9620   -1.5641 H         1 <0>         0.0391
     37 H16         4.1624   -1.7703   -0.6321 H         1 <0>         0.0391
     38 H17         4.4764   -0.2010   -1.3519 H         1 <0>         0.0391
     39 H18        -3.7052    2.1960    1.4267 H         1 <0>         0.2102
     40 H19        -3.9021   -1.7643    0.2203 H         1 <0>         0.0660
     41 H20        -3.5029   -3.4574    0.6630 H         1 <0>         0.0660
     42 H21        -4.5513   -3.1180   -0.7329 H         1 <0>         0.0660
@<TRIPOS>BOND
     1    1    6 1
     2    1   11 1
     3    2   14 1
     4    2   39 1
     5    3   17 1
     6    3   21 1
     7    4   12 1
     8    4   15 1
     9    4   20 1
    10    5    6 1
    11    5    7 1
    12    5    8 1
    13    5   10 1
    14    6    9 1
    15    6   22 1
    16    7   11 ar
    17    7   13 ar
    18    8   12 1
    19    8   23 1
    20    8   24 1
    21    9   14 1
    22    9   25 1
    23    9   26 1
    24   10   16 2
    25   10   27 1
    26   11   17 ar
    27   12   28 1
    28   12   29 1
    29   13   15 1
    30   13   18 ar
    31   14   16 1
    32   14   30 1
    33   15   31 1
    34   15   32 1
    35   16   33 1
    36   17   19 ar
    37   18   19 ar
    38   18   34 1
    39   19   35 1
    40   20   36 1
    41   20   37 1
    42   20   38 1
    43   21   40 1
    44   21   41 1
    45   21   42 1
