@<TRIPOS>MOLECULE
DB00624
   49    52     0     0     0
SMALL
USER_CHARGES

@<TRIPOS>ATOM
      1 O1         -4.7634   -1.3433   -0.4630 O.3       1 <0>        -0.3912
      2 O2          5.8738    0.6318   -1.2223 O.2       1 <0>        -0.2927
      3 C1         -1.7252    0.6713   -0.4451 C.3       1 <0>        -0.0301
      4 C2         -2.4100   -0.6776   -0.1530 C.3       1 <0>        -0.0030
      5 C3         -0.3398    0.7824    0.1988 C.3       1 <0>        -0.0337
      6 C4          0.5671   -0.3591   -0.3601 C.3       1 <0>        -0.0288
      7 C5          2.0372   -0.3075    0.2099 C.3       1 <0>        -0.0072
      8 C6         -1.5515   -1.7890   -0.7695 C.3       1 <0>        -0.0447
      9 C7         -0.1094   -1.7526   -0.2320 C.3       1 <0>        -0.0486
     10 C8         -3.7560   -0.4345   -0.8623 C.3       1 <0>         0.0609
     11 C9         -2.7963    1.6989   -0.0880 C.3       1 <0>        -0.0470
     12 C10         0.2995    2.1481   -0.0814 C.3       1 <0>        -0.0459
     13 C11        -4.1163    1.0175   -0.4918 C.3       1 <0>        -0.0261
     14 C12         2.5901    1.1171    0.0731 C.2       1 <0>        -0.0601
     15 C13         1.6907    2.2407    0.5319 C.3       1 <0>        -0.0305
     16 C14        -2.6394   -0.9744    1.3510 C.3       1 <0>        -0.0569
     17 C15         2.9139   -1.2994   -0.6091 C.3       1 <0>        -0.0367
     18 C16         2.0931   -0.7049    1.7024 C.3       1 <0>        -0.0556
     19 C17         4.4083   -1.0860   -0.4268 C.3       1 <0>         0.0107
     20 C18         3.8136    1.4057   -0.4013 C.2       1 <0>        -0.0194
     21 C19         4.7779    0.3373   -0.7496 C.2       1 <0>         0.1561
     22 H1         -1.5759    0.7562   -1.5349 H         1 <0>         0.0310
     23 H2         -0.4383    0.6789    1.2848 H         1 <0>         0.0307
     24 H3          0.6485   -0.1724   -1.4436 H         1 <0>         0.0312
     25 H4         -1.5186   -1.6777   -1.8611 H         1 <0>         0.0271
     26 H5         -1.9933   -2.7735   -0.5736 H         1 <0>         0.0271
     27 H6         -0.1114   -2.0786    0.8127 H         1 <0>         0.0268
     28 H7          0.4683   -2.5007   -0.7861 H         1 <0>         0.0268
     29 H8         -3.6436   -0.5172   -1.9501 H         1 <0>         0.0599
     30 H9         -2.6554    2.6425   -0.6249 H         1 <0>         0.0269
     31 H10        -2.7950    1.9235    0.9844 H         1 <0>         0.0269
     32 H11        -0.3222    2.9491    0.3353 H         1 <0>         0.0271
     33 H12         0.3600    2.3227   -1.1636 H         1 <0>         0.0271
     34 H13        -4.8476    1.0763    0.3219 H         1 <0>         0.0290
     35 H14        -4.5643    1.5221   -1.3555 H         1 <0>         0.0290
     36 H15         1.6123    2.2093    1.6256 H         1 <0>         0.0310
     37 H16         2.1183    3.2200    0.2836 H         1 <0>         0.0310
     38 H17        -3.2925   -0.2375    1.8291 H         1 <0>         0.0236
     39 H18        -3.1062   -1.9571    1.4850 H         1 <0>         0.0236
     40 H19        -1.7090   -0.9883    1.9248 H         1 <0>         0.0236
     41 H20         2.6848   -1.1923   -1.6788 H         1 <0>         0.0278
     42 H21         2.6771   -2.3366   -0.3438 H         1 <0>         0.0278
     43 H22         1.3875   -0.1312    2.3113 H         1 <0>         0.0238
     44 H23         1.8638   -1.7659    1.8463 H         1 <0>         0.0238
     45 H24         3.0893   -0.5345    2.1272 H         1 <0>         0.0238
     46 H25         4.9512   -1.7494   -1.1093 H         1 <0>         0.0345
     47 H26         4.7307   -1.3109    0.5945 H         1 <0>         0.0345
     48 H27         4.1654    2.4276   -0.4953 H         1 <0>         0.0652
     49 H28        -5.0414   -1.1271    0.4424 H         1 <0>         0.2098
@<TRIPOS>BOND
     1    1   10 1
     2    1   49 1
     3    2   21 2
     4    3    4 1
     5    3    5 1
     6    3   11 1
     7    3   22 1
     8    4    8 1
     9    4   10 1
    10    4   16 1
    11    5    6 1
    12    5   12 1
    13    5   23 1
    14    6    7 1
    15    6    9 1
    16    6   24 1
    17    7   14 1
    18    7   17 1
    19    7   18 1
    20    8    9 1
    21    8   25 1
    22    8   26 1
    23    9   27 1
    24    9   28 1
    25   10   13 1
    26   10   29 1
    27   11   13 1
    28   11   30 1
    29   11   31 1
    30   12   15 1
    31   12   32 1
    32   12   33 1
    33   13   34 1
    34   13   35 1
    35   14   15 1
    36   14   20 2
    37   15   36 1
    38   15   37 1
    39   16   38 1
    40   16   39 1
    41   16   40 1
    42   17   19 1
    43   17   41 1
    44   17   42 1
    45   18   43 1
    46   18   44 1
    47   18   45 1
    48   19   21 1
    49   19   46 1
    50   19   47 1
    51   20   21 1
    52   20   48 1
