@<TRIPOS>MOLECULE
DB00202
   50    49     0     0     0
SMALL
USER_CHARGES

@<TRIPOS>ATOM
      1 O1          2.9804    0.4059    0.0583 O.3       1 <0>        -0.4592
      2 O2         -2.9804   -0.4047    0.0752 O.3       1 <0>        -0.4592
      3 O3          1.9254   -1.6444    0.1214 O.2       1 <0>        -0.2508
      4 O4         -1.9278    1.6470    0.1438 O.2       1 <0>        -0.2508
      5 N1          6.6731    0.1038   -0.0467 N.4       1 <0>         0.2393
      6 N2         -6.6727   -0.1049   -0.0491 N.4       1 <0>         0.2393
      7 C1          5.3572    0.7897    0.0033 C.3       1 <0>         0.0042
      8 C2         -5.3566   -0.7899    0.0078 C.3       1 <0>         0.0042
      9 C3          7.8167    1.1244   -0.1230 C.3       1 <0>        -0.0417
     10 C4          6.7647   -0.8088   -1.2774 C.3       1 <0>        -0.0417
     11 C5          6.8855   -0.7590    1.2046 C.3       1 <0>        -0.0417
     12 C6         -6.8922    0.7577    1.2011 C.3       1 <0>        -0.0417
     13 C7         -6.7584    0.8076   -1.2801 C.3       1 <0>        -0.0417
     14 C8         -7.8153   -1.1262   -0.1312 C.3       1 <0>        -0.0417
     15 C9          4.2532   -0.2484    0.0465 C.3       1 <0>         0.1321
     16 C10        -4.2535    0.2488    0.0568 C.3       1 <0>         0.1321
     17 C11         0.6373    0.4219    0.1143 C.3       1 <0>         0.0550
     18 C12        -0.6378   -0.4181    0.1432 C.3       1 <0>         0.0550
     19 C13         1.8939   -0.4219    0.0969 C.2       1 <0>         0.3078
     20 C14        -1.8950    0.4243    0.1194 C.2       1 <0>         0.3078
     21 H1          5.3256    1.4381    0.8874 H         1 <0>         0.0849
     22 H2          5.2578    1.4316   -0.8806 H         1 <0>         0.0849
     23 H3         -5.3292   -1.4383    0.8921 H         1 <0>         0.0849
     24 H4         -5.2521   -1.4318   -0.8755 H         1 <0>         0.0849
     25 H5          8.7687    0.5866   -0.1535 H         1 <0>         0.0778
     26 H6          7.7631    1.7607    0.7653 H         1 <0>         0.0778
     27 H7          7.6813    1.7187   -1.0312 H         1 <0>         0.0778
     28 H8          6.1456   -1.6974   -1.1327 H         1 <0>         0.0778
     29 H9          7.8071   -1.1252   -1.3872 H         1 <0>         0.0778
     30 H10         6.4517   -0.2378   -2.1564 H         1 <0>         0.0778
     31 H11         7.9267   -1.0974    1.2100 H         1 <0>         0.0778
     32 H12         6.2321   -1.6338    1.1714 H         1 <0>         0.0778
     33 H13         6.6852   -0.1437    2.0866 H         1 <0>         0.0778
     34 H14        -6.6962    0.1425    2.0840 H         1 <0>         0.0778
     35 H15        -6.2393    1.6330    1.1713 H         1 <0>         0.0778
     36 H16        -7.9337    1.0955    1.2010 H         1 <0>         0.0778
     37 H17        -6.4405    0.2369   -2.1575 H         1 <0>         0.0778
     38 H18        -7.8005    1.1233   -1.3955 H         1 <0>         0.0778
     39 H19        -6.1407    1.6967   -1.1323 H         1 <0>         0.0778
     40 H20        -7.6748   -1.7205   -1.0389 H         1 <0>         0.0778
     41 H21        -7.7659   -1.7626    0.7572 H         1 <0>         0.0778
     42 H22        -8.7675   -0.5890   -0.1668 H         1 <0>         0.0778
     43 H23         4.2620   -0.8963   -0.8340 H         1 <0>         0.0752
     44 H24         4.3055   -0.8599    0.9519 H         1 <0>         0.0752
     45 H25        -4.2582    0.8969   -0.8237 H         1 <0>         0.0752
     46 H26        -4.3110    0.8603    0.9619 H         1 <0>         0.0752
     47 H27         0.6713    1.0696    0.9980 H         1 <0>         0.0383
     48 H28         0.6393    1.0556   -0.7802 H         1 <0>         0.0383
     49 H29        -0.6565   -1.0839   -0.7276 H         1 <0>         0.0383
     50 H30        -0.6547   -1.0335    1.0502 H         1 <0>         0.0383
@<TRIPOS>BOND
     1    1   15 1
     2    1   19 1
     3    2   16 1
     4    2   20 1
     5    3   19 2
     6    4   20 2
     7    5    7 1
     8    5    9 1
     9    5   10 1
    10    5   11 1
    11    6    8 1
    12    6   12 1
    13    6   13 1
    14    6   14 1
    15    7   15 1
    16    7   21 1
    17    7   22 1
    18    8   16 1
    19    8   23 1
    20    8   24 1
    21    9   25 1
    22    9   26 1
    23    9   27 1
    24   10   28 1
    25   10   29 1
    26   10   30 1
    27   11   31 1
    28   11   32 1
    29   11   33 1
    30   12   34 1
    31   12   35 1
    32   12   36 1
    33   13   37 1
    34   13   38 1
    35   13   39 1
    36   14   40 1
    37   14   41 1
    38   14   42 1
    39   15   43 1
    40   15   44 1
    41   16   45 1
    42   16   46 1
    43   17   18 1
    44   17   19 1
    45   17   47 1
    46   17   48 1
    47   18   20 1
    48   18   49 1
    49   18   50 1
