@<TRIPOS>MOLECULE
DB00152
   35    36     0     0     0
SMALL
USER_CHARGES

@<TRIPOS>ATOM
      1 S1          1.5926   -1.4134    1.6169 S.3       1 <0>        -0.0273
      2 O1          6.2001   -0.2485    0.8892 O.3       1 <0>        -0.3947
      3 N1          0.4524   -0.3194   -0.3033 N.pl3     1 <0>        -0.1903
      4 N2         -3.9848   -0.7922    0.1128 N.ar      1 <0>        -0.2176
      5 N3         -3.5218    1.5485    0.4512 N.ar      1 <0>        -0.2400
      6 N4         -2.3927   -2.1818   -0.9633 N.pl3     1 <0>        -0.3427
      7 C1          1.6714    0.2947   -0.2641 C.2       1 <0>         0.1915
      8 C2         -0.5718    0.0139   -1.2958 C.3       1 <0>         0.1811
      9 C3          2.4500   -0.1947    0.7575 C.2       1 <0>         0.0636
     10 C4          3.8200    0.1743    1.1652 C.3       1 <0>         0.0079
     11 C5         -1.9002    0.1451   -0.6421 C.ar      1 <0>         0.0747
     12 C6          0.2299   -1.2361    0.5980 C.2       1 <0>         0.2109
     13 C7          1.9786    1.3371   -1.2545 C.3       1 <0>         0.0216
     14 C8          4.9070   -0.6583    0.4618 C.3       1 <0>         0.0489
     15 C9         -2.7783   -0.9070   -0.4801 C.ar      1 <0>         0.1289
     16 C10        -2.3295    1.3617   -0.1523 C.ar      1 <0>         0.0421
     17 C11        -4.2880    0.4454    0.5488 C.ar      1 <0>         0.1280
     18 C12        -5.6142    0.6121    1.2099 C.3       1 <0>        -0.0046
     19 H1         -0.5461   -0.7431   -2.0866 H         1 <0>         0.1087
     20 H2         -0.3591    0.9582   -1.8057 H         1 <0>         0.1087
     21 H3          3.9478    0.0770    2.2515 H         1 <0>         0.0343
     22 H4          4.0013    1.2381    0.9652 H         1 <0>         0.0343
     23 H5         -0.6456   -1.8425    0.7405 H         1 <0>         0.1462
     24 H6          1.8505    0.9681   -2.2772 H         1 <0>         0.0336
     25 H7          1.3503    2.2210   -1.1053 H         1 <0>         0.0336
     26 H8          3.0189    1.6695   -1.1736 H         1 <0>         0.0336
     27 H9          4.8498   -0.5459   -0.6264 H         1 <0>         0.0560
     28 H10         4.7960   -1.7222    0.6956 H         1 <0>         0.0560
     29 H11        -1.7143    2.2531   -0.2258 H         1 <0>         0.0836
     30 H12        -1.8468   -2.2416   -1.8124 H         1 <0>         0.1437
     31 H13        -3.0539   -2.9321   -0.7991 H         1 <0>         0.1437
     32 H14         6.2948    0.6940    0.6693 H         1 <0>         0.2094
     33 H15        -5.9425   -0.3260    1.6682 H         1 <0>         0.0308
     34 H16        -5.5626    1.3728    1.9952 H         1 <0>         0.0308
     35 H17        -6.3592    0.9203    0.4706 H         1 <0>         0.0308
@<TRIPOS>BOND
     1    1    9 1
     2    1   12 1
     3    2   14 1
     4    2   32 1
     5    3    7 1
     6    3    8 1
     7    3   12 2
     8    4   15 ar
     9    4   17 ar
    10    5   16 ar
    11    5   17 ar
    12    6   15 1
    13    6   30 1
    14    6   31 1
    15    7    9 2
    16    7   13 1
    17    8   11 1
    18    8   19 1
    19    8   20 1
    20    9   10 1
    21   10   14 1
    22   10   21 1
    23   10   22 1
    24   11   15 ar
    25   11   16 ar
    26   12   23 1
    27   13   24 1
    28   13   25 1
    29   13   26 1
    30   14   27 1
    31   14   28 1
    32   16   29 1
    33   17   18 1
    34   18   33 1
    35   18   34 1
    36   18   35 1
