@<TRIPOS>MOLECULE
DB00651
   32    33     0     0     0
SMALL
USER_CHARGES

@<TRIPOS>ATOM
      1 O1          2.9460    1.3510    0.9870 O.3       1 <0>        -0.3878
      2 O2          0.0558   -2.0504   -0.5481 O.2       1 <0>        -0.2652
      3 O3          4.8475   -0.6730    1.1826 O.3       1 <0>        -0.3924
      4 O4         -4.3671   -0.8474    0.4542 O.2       1 <0>        -0.2462
      5 N1          0.6055    0.8890   -0.6284 N.pl3     1 <0>        -0.3220
      6 N2         -2.8135    0.8545    0.1320 N.am      1 <0>        -0.2796
      7 N3         -2.1655   -1.4725   -0.0448 N.am      1 <0>        -0.2622
      8 N4         -0.9629    2.4294   -0.2582 N.2       1 <0>        -0.2177
      9 C1         -0.5501    0.2056   -0.3802 C.2       1 <0>         0.1515
     10 C2          1.9059    0.3379   -0.9262 C.3       1 <0>         0.0530
     11 C3         -1.4932    1.1713   -0.1572 C.cat     1 <0>         0.1678
     12 C4          2.7391    0.0969    0.3341 C.3       1 <0>         0.0961
     13 C5         -0.8044   -1.1982   -0.3434 C.2       1 <0>         0.2822
     14 C6          0.3064    2.2244   -0.5437 C.2       1 <0>         0.0990
     15 C7         -3.2063   -0.5055    0.2008 C.2       1 <0>         0.3331
     16 C8          4.1007   -0.4953   -0.0161 C.3       1 <0>         0.0718
     17 C9         -3.7888    1.9129    0.3631 C.3       1 <0>         0.0181
     18 C10        -2.5504   -2.8787    0.0204 C.3       1 <0>         0.0196
     19 H1          1.7753   -0.5786   -1.5090 H         1 <0>         0.0518
     20 H2          2.4082    1.0634   -1.5791 H         1 <0>         0.0518
     21 H3          2.2091   -0.5511    1.0417 H         1 <0>         0.0634
     22 H4          1.0474    2.9967   -0.6992 H         1 <0>         0.1029
     23 H5          4.6689    0.1833   -0.6611 H         1 <0>         0.0583
     24 H6          3.9935   -1.4650   -0.5116 H         1 <0>         0.0583
     25 H7         -4.7808    1.5080    0.5779 H         1 <0>         0.0458
     26 H8         -3.8500    2.5406   -0.5314 H         1 <0>         0.0458
     27 H9         -3.4619    2.5167    1.2152 H         1 <0>         0.0458
     28 H10        -1.7160   -3.5565   -0.1731 H         1 <0>         0.0458
     29 H11        -3.3401   -3.0587   -0.7159 H         1 <0>         0.0458
     30 H12        -2.9584   -3.0832    1.0153 H         1 <0>         0.0458
     31 H13         3.4928    1.1825    1.7733 H         1 <0>         0.2100
     32 H14         5.7073   -1.0498    0.9290 H         1 <0>         0.2095
@<TRIPOS>BOND
     1    1   12 1
     2    1   31 1
     3    2   13 2
     4    3   16 1
     5    3   32 1
     6    4   15 2
     7    5    9 2
     8    5   10 1
     9    5   14 1
    10    6   11 2
    11    6   15 am
    12    6   17 1
    13    7   13 am
    14    7   15 am
    15    7   18 1
    16    8   11 1
    17    8   14 2
    18    9   11 1
    19    9   13 1
    20   10   12 1
    21   10   19 1
    22   10   20 1
    23   12   16 1
    24   12   21 1
    25   14   22 1
    26   16   23 1
    27   16   24 1
    28   17   25 1
    29   17   26 1
    30   17   27 1
    31   18   28 1
    32   18   29 1
    33   18   30 1
