@<TRIPOS>MOLECULE
DB00585
   42    42     0     0     0
SMALL
USER_CHARGES

@<TRIPOS>ATOM
      1 S1          0.5869    2.1336    1.3033 S.3       1 <0>        -0.1508
      2 S2         -4.2354    2.3953    0.2258 S.3       1 <0>        -0.0790
      3 O1          4.0010   -2.8309   -2.1491 O.3       1 <0>        -0.5763
      4 O2          5.9168   -1.7670   -2.3701 O.2       1 <0>         0.0411
      5 N1         -4.4123   -1.1082    0.2557 N.3       1 <0>        -0.3022
      6 N2         -2.1553    1.1034   -0.6026 N.2       1 <0>        -0.2468
      7 N3          3.0808    0.3911    0.4357 N.pl3     1 <0>        -0.2327
      8 N4          3.7213   -1.9357    0.5143 N.pl3     1 <0>        -0.2362
      9 N5          4.7280   -1.8342   -2.0236 N.pl3     1 <0>         0.0799
     10 C1         -4.2764   -0.1449   -0.8452 C.3       1 <0>         0.0470
     11 C2         -3.4596    1.0264   -0.4590 C.2       1 <0>         0.0925
     12 C3          2.2648    2.6667    0.8451 C.3       1 <0>         0.0300
     13 C4         -1.7271    2.3323   -0.1396 C.2       1 <0>         0.0585
     14 C5         -0.2679    2.6454   -0.2040 C.3       1 <0>         0.0366
     15 C6          2.9292    1.7088   -0.1360 C.3       1 <0>         0.0871
     16 C7         -2.7094    3.1686    0.3474 C.2       1 <0>        -0.0005
     17 C8         -3.2135   -1.9361    0.3523 C.3       1 <0>        -0.0126
     18 C9         -5.5978   -1.9371    0.0572 C.3       1 <0>        -0.0126
     19 C10         3.6545   -0.7229   -0.1809 C.2       1 <0>         0.3260
     20 C11         4.1533   -0.6773   -1.4352 C.2       1 <0>         0.3211
     21 C12         3.2583   -2.2324    1.8487 C.3       1 <0>         0.0671
     22 H1         -3.8526   -0.6205   -1.7401 H         1 <0>         0.0496
     23 H2         -5.2684    0.2134   -1.1551 H         1 <0>         0.0496
     24 H3          2.8525    2.7160    1.7684 H         1 <0>         0.0413
     25 H4          2.2282    3.6799    0.4320 H         1 <0>         0.0413
     26 H5          3.9203    2.1091   -0.3816 H         1 <0>         0.0732
     27 H6          2.3651    1.6562   -1.0735 H         1 <0>         0.0732
     28 H7          0.1622    2.1309   -1.0687 H         1 <0>         0.0440
     29 H8         -0.1285    3.7220   -0.3516 H         1 <0>         0.0440
     30 H9         -2.6111    4.1644    0.7562 H         1 <0>         0.0712
     31 H10         2.7326    0.2364    1.3762 H         1 <0>         0.2913
     32 H11        -3.3105   -2.6500    1.1786 H         1 <0>         0.0391
     33 H12        -3.0236   -2.5062   -0.5647 H         1 <0>         0.0391
     34 H13        -2.3261   -1.3352    0.5765 H         1 <0>         0.0391
     35 H14        -5.5557   -2.5025   -0.8809 H         1 <0>         0.0391
     36 H15        -5.7130   -2.6489    0.8826 H         1 <0>         0.0391
     37 H16        -6.5048   -1.3221    0.0507 H         1 <0>         0.0391
     38 H17         4.1525   -2.7171    0.0309 H         1 <0>         0.2910
     39 H18         4.2265    0.1861   -2.0811 H         1 <0>         0.1524
     40 H19         3.7725   -1.6076    2.5854 H         1 <0>         0.0687
     41 H20         3.4623   -3.2801    2.0900 H         1 <0>         0.0687
     42 H21         2.1794   -2.0690    1.9299 H         1 <0>         0.0687
@<TRIPOS>BOND
     1    1   12 1
     2    1   14 1
     3    2   11 1
     4    2   16 1
     5    3    9 1
     6    4    9 2
     7    5   10 1
     8    5   17 1
     9    5   18 1
    10    6   11 2
    11    6   13 1
    12    7   15 1
    13    7   19 1
    14    7   31 1
    15    8   19 1
    16    8   21 1
    17    8   38 1
    18    9   20 1
    19   10   11 1
    20   10   22 1
    21   10   23 1
    22   12   15 1
    23   12   24 1
    24   12   25 1
    25   13   14 1
    26   13   16 2
    27   14   28 1
    28   14   29 1
    29   15   26 1
    30   15   27 1
    31   16   30 1
    32   17   32 1
    33   17   33 1
    34   17   34 1
    35   18   35 1
    36   18   36 1
    37   18   37 1
    38   19   20 2
    39   20   39 1
    40   21   40 1
    41   21   41 1
    42   21   42 1
