@<TRIPOS>MOLECULE
DB00909
   22    23     0     0     0
SMALL
USER_CHARGES

@<TRIPOS>ATOM
      1 S1          2.5748    0.0019   -0.8784 S.o2      1 <0>         0.0326
      2 O1         -1.1709    2.3621    0.0775 O.3       1 <0>        -0.3543
      3 O2          1.8849   -1.0736   -1.5649 O.2       1 <0>        -0.1581
      4 O3          2.8213    1.2733   -1.5315 O.2       1 <0>        -0.1581
      5 N1          0.1892    2.1874    0.3023 N.2       1 <0>        -0.0803
      6 N2          4.0421   -0.5925   -0.2487 N.pl3     1 <0>        -0.2077
      7 C1          1.7122    0.3243    0.6359 C.3       1 <0>         0.1272
      8 C2          0.3641    0.8656    0.3945 C.2       1 <0>         0.1137
      9 C3         -0.8402    0.1527    0.2376 C.ar      1 <0>         0.0459
     10 C4         -1.7825    1.1468    0.0396 C.ar      1 <0>         0.1675
     11 C5         -1.2534   -1.1876    0.2372 C.ar      1 <0>        -0.0491
     12 C6         -3.1391    0.9121   -0.1644 C.ar      1 <0>        -0.0161
     13 C7         -2.6136   -1.4610    0.0344 C.ar      1 <0>        -0.0609
     14 C8         -3.5371   -0.4289   -0.1624 C.ar      1 <0>        -0.0582
     15 H1          1.6581   -0.6184    1.1907 H         1 <0>         0.0582
     16 H2          2.3182    1.0292    1.2157 H         1 <0>         0.0582
     17 H3         -0.5479   -1.9985    0.3885 H         1 <0>         0.0625
     18 H4         -3.8468    1.7179   -0.3162 H         1 <0>         0.0655
     19 H5         -2.9553   -2.4930    0.0302 H         1 <0>         0.0618
     20 H6         -4.5852   -0.6732   -0.3170 H         1 <0>         0.0619
     21 H7          4.6726    0.0759    0.2110 H         1 <0>         0.1439
     22 H8          4.0346   -1.5222    0.1882 H         1 <0>         0.1439
@<TRIPOS>BOND
     1    1    3 2
     2    1    4 2
     3    1    6 1
     4    1    7 1
     5    2    5 1
     6    2   10 1
     7    5    8 2
     8    6   21 1
     9    6   22 1
    10    7    8 1
    11    7   15 1
    12    7   16 1
    13    8    9 1
    14    9   10 ar
    15    9   11 ar
    16   10   12 ar
    17   11   13 ar
    18   11   17 1
    19   12   14 ar
    20   12   18 1
    21   13   14 ar
    22   13   19 1
    23   14   20 1
