@<TRIPOS>MOLECULE
DB00468
   48    51     0     0     0
SMALL
USER_CHARGES

@<TRIPOS>ATOM
      1 O1          0.1855    1.3967   -2.6122 O.3       1 <0>        -0.3856
      2 O2         -4.2302   -2.0338   -0.3904 O.3       1 <0>        -0.4951
      3 N1          1.1741    0.0184    0.7199 N.3       1 <0>        -0.2960
      4 N2         -2.7646    3.1302    0.9316 N.ar      1 <0>        -0.2550
      5 C1          2.9888   -1.2551   -0.6375 C.3       1 <0>        -0.0310
      6 C2          1.3199    0.6330   -0.6263 C.3       1 <0>         0.0408
      7 C3          2.3565   -0.1303   -1.4796 C.3       1 <0>        -0.0312
      8 C4          3.5801   -0.6845    0.6737 C.3       1 <0>        -0.0075
      9 C5          1.8363   -2.1947   -0.2377 C.3       1 <0>        -0.0367
     10 C6          2.4858    0.1240    1.4080 C.3       1 <0>         0.0058
     11 C7          0.8203   -1.4147    0.6112 C.3       1 <0>        -0.0004
     12 C8         -0.0218    0.7696   -1.3506 C.3       1 <0>         0.0963
     13 C9          4.8136    0.1344    0.4369 C.2       1 <0>        -0.0865
     14 C10        -1.0136    1.5723   -0.5470 C.ar      1 <0>        -0.0070
     15 C11         6.0171   -0.1626    0.9385 C.2       1 <0>        -0.1023
     16 C12        -2.2423    1.0422   -0.1525 C.ar      1 <0>         0.0095
     17 C13        -0.6548    2.8643   -0.2116 C.ar      1 <0>        -0.0373
     18 C14        -3.1028    1.8701    0.5988 C.ar      1 <0>         0.0715
     19 C15        -2.6276   -0.2685   -0.4815 C.ar      1 <0>        -0.0104
     20 C16        -1.5621    3.5983    0.5251 C.ar      1 <0>         0.0286
     21 C17        -4.3306    1.3486    0.9971 C.ar      1 <0>        -0.0323
     22 C18        -3.8613   -0.7644   -0.0701 C.ar      1 <0>         0.1208
     23 C19        -4.7137    0.0455    0.6699 C.ar      1 <0>        -0.0179
     24 C20        -5.5090   -2.4740    0.0653 C.3       1 <0>         0.0788
     25 H1          3.7417   -1.7989   -1.2187 H         1 <0>         0.0308
     26 H2          1.7351    1.6420   -0.4952 H         1 <0>         0.0491
     27 H3          3.1290    0.5598   -1.8376 H         1 <0>         0.0284
     28 H4          1.8987   -0.5732   -2.3731 H         1 <0>         0.0284
     29 H5          3.8461   -1.5389    1.3132 H         1 <0>         0.0358
     30 H6          2.2216   -3.0501    0.3298 H         1 <0>         0.0280
     31 H7          1.3480   -2.5944   -1.1345 H         1 <0>         0.0280
     32 H8          2.3819   -0.2503    2.4352 H         1 <0>         0.0432
     33 H9          2.7565    1.1824    1.5187 H         1 <0>         0.0432
     34 H10        -0.1848   -1.5495    0.2063 H         1 <0>         0.0427
     35 H11         0.7720   -1.8508    1.6177 H         1 <0>         0.0427
     36 H12        -0.3657   -0.2276   -1.6130 H         1 <0>         0.0659
     37 H13         4.7224    1.0340   -0.1666 H         1 <0>         0.0570
     38 H14        -0.6844    1.6114   -2.9905 H         1 <0>         0.2103
     39 H15         6.8693    0.4767    0.7358 H         1 <0>         0.0532
     40 H16         6.1755   -1.0405    1.5548 H         1 <0>         0.0532
     41 H17         0.2816    3.3171   -0.5154 H         1 <0>         0.0636
     42 H18        -2.0215   -0.9469   -1.0684 H         1 <0>         0.0661
     43 H19        -1.3444    4.6204    0.8171 H         1 <0>         0.0830
     44 H20        -5.0156    1.9638    1.5779 H         1 <0>         0.0640
     45 H21        -5.6890   -0.2689    1.0256 H         1 <0>         0.0655
     46 H22        -6.3186   -1.8847   -0.3785 H         1 <0>         0.0660
     47 H23        -5.5613   -2.4927    1.1592 H         1 <0>         0.0660
     48 H24        -5.6376   -3.5053   -0.2791 H         1 <0>         0.0660
@<TRIPOS>BOND
     1    1   12 1
     2    1   38 1
     3    2   22 1
     4    2   24 1
     5    3    6 1
     6    3   10 1
     7    3   11 1
     8    4   18 ar
     9    4   20 ar
    10    5    7 1
    11    5    8 1
    12    5    9 1
    13    5   25 1
    14    6    7 1
    15    6   12 1
    16    6   26 1
    17    7   27 1
    18    7   28 1
    19    8   10 1
    20    8   13 1
    21    8   29 1
    22    9   11 1
    23    9   30 1
    24    9   31 1
    25   10   32 1
    26   10   33 1
    27   11   34 1
    28   11   35 1
    29   12   14 1
    30   12   36 1
    31   13   15 2
    32   13   37 1
    33   14   16 ar
    34   14   17 ar
    35   15   39 1
    36   15   40 1
    37   16   18 ar
    38   16   19 ar
    39   17   20 ar
    40   17   41 1
    41   18   21 ar
    42   19   22 ar
    43   19   42 1
    44   20   43 1
    45   21   23 ar
    46   21   44 1
    47   22   23 ar
    48   23   45 1
    49   24   46 1
    50   24   47 1
    51   24   48 1
