@<TRIPOS>MOLECULE
DB00231
   34    36     0     0     0
SMALL
USER_CHARGES

@<TRIPOS>ATOM
      1 Cl1         0.1813   -4.2916    1.9579 Cl        1 <0>        -0.0835
      2 O1          1.3380    3.4382    1.6248 O.3       1 <0>        -0.3636
      3 O2          2.4004    3.0215   -0.7230 O.2       1 <0>        -0.2702
      4 N1          2.3005    0.7030   -0.5717 N.am      1 <0>        -0.2701
      5 N2         -0.2127    1.8218    0.6968 N.2       1 <0>        -0.2428
      6 C1          1.7450   -0.4856    0.0145 C.ar      1 <0>         0.0453
      7 C2          0.4426   -0.5415    0.5506 C.ar      1 <0>         0.0234
      8 C3         -0.5163    0.5953    0.4384 C.2       1 <0>         0.0780
      9 C4          1.1485    2.1226    1.1083 C.3       1 <0>         0.2248
     10 C5          1.9877    2.0055   -0.1562 C.2       1 <0>         0.2709
     11 C6         -1.9111    0.3212   -0.0134 C.ar      1 <0>         0.0007
     12 C7         -0.0274   -1.7162    1.1653 C.ar      1 <0>        -0.0324
     13 C8          2.5153   -1.6647    0.0503 C.ar      1 <0>        -0.0383
     14 C9          3.3034    0.5423   -1.6250 C.3       1 <0>         0.0084
     15 C10         0.7685   -2.8564    1.2129 C.ar      1 <0>         0.0417
     16 C11         2.0348   -2.8343    0.6448 C.ar      1 <0>        -0.0416
     17 C12        -2.1569   -0.7367   -0.8803 C.ar      1 <0>        -0.0526
     18 C13        -2.9500    1.1264    0.4376 C.ar      1 <0>        -0.0526
     19 C14        -3.4612   -0.9931   -1.3029 C.ar      1 <0>        -0.0611
     20 C15        -4.2545    0.8696    0.0152 C.ar      1 <0>        -0.0611
     21 C16        -4.5099   -0.1901   -0.8552 C.ar      1 <0>        -0.0617
     22 H1          1.5167    1.4469    1.8874 H         1 <0>         0.0952
     23 H2         -1.0193   -1.7446    1.6123 H         1 <0>         0.0639
     24 H3          3.5251   -1.6926   -0.3518 H         1 <0>         0.0637
     25 H4          3.0149   -0.2661   -2.3043 H         1 <0>         0.0433
     26 H5          4.2741    0.3339   -1.1648 H         1 <0>         0.0433
     27 H6          3.4012    1.4576   -2.2165 H         1 <0>         0.0433
     28 H7          2.6702   -3.7162    0.6649 H         1 <0>         0.0633
     29 H8         -1.3614   -1.3614   -1.2758 H         1 <0>         0.0624
     30 H9         -2.7767    1.9518    1.1225 H         1 <0>         0.0624
     31 H10        -3.6595   -1.8135   -1.9864 H         1 <0>         0.0618
     32 H11        -5.0716    1.4939    0.3650 H         1 <0>         0.0618
     33 H12         0.8459    4.0422    1.0430 H         1 <0>         0.2125
     34 H13        -5.5254   -0.3891   -1.1851 H         1 <0>         0.0618
@<TRIPOS>BOND
     1    1   15 1
     2    2    9 1
     3    2   33 1
     4    3   10 2
     5    4    6 1
     6    4   10 am
     7    4   14 1
     8    5    8 2
     9    5    9 1
    10    6    7 ar
    11    6   13 ar
    12    7    8 1
    13    7   12 ar
    14    8   11 1
    15    9   10 1
    16    9   22 1
    17   11   17 ar
    18   11   18 ar
    19   12   15 ar
    20   12   23 1
    21   13   16 ar
    22   13   24 1
    23   14   25 1
    24   14   26 1
    25   14   27 1
    26   15   16 ar
    27   16   28 1
    28   17   19 ar
    29   17   29 1
    30   18   20 ar
    31   18   30 1
    32   19   21 ar
    33   19   31 1
    34   20   21 ar
    35   20   32 1
    36   21   34 1
