@<TRIPOS>MOLECULE
DB00723
   32    32     0     0     0
SMALL
USER_CHARGES

@<TRIPOS>ATOM
      1 O1         -0.0717    1.5030    2.0654 O.3       1 <0>        -0.3855
      2 O2         -2.4135   -0.9423    0.3862 O.3       1 <0>        -0.4947
      3 O3          2.9694   -1.9617   -0.2296 O.3       1 <0>        -0.4951
      4 N1         -0.5524    3.6270    0.2201 N.3       1 <0>        -0.3251
      5 C1         -0.5902    1.2243    0.7619 C.3       1 <0>         0.0985
      6 C2         -0.1146    2.3025   -0.2379 C.3       1 <0>         0.0326
      7 C3         -0.1425   -0.1767    0.4041 C.ar      1 <0>         0.0274
      8 C4         -0.6694    2.0828   -1.6467 C.3       1 <0>        -0.0472
      9 C5         -1.0805   -1.1811    0.2364 C.ar      1 <0>         0.1260
     10 C6          1.2123   -0.4198    0.2526 C.ar      1 <0>        -0.0108
     11 C7          1.6415   -1.7057   -0.0764 C.ar      1 <0>         0.1207
     12 C8         -0.6512   -2.4668   -0.0927 C.ar      1 <0>        -0.0161
     13 C9          0.7098   -2.7291   -0.2489 C.ar      1 <0>        -0.0165
     14 C10        -3.2953   -2.0460    0.1915 C.3       1 <0>         0.0788
     15 C11         3.8677   -0.8695   -0.0387 C.3       1 <0>         0.0788
     16 H1         -1.6810    1.2770    0.8527 H         1 <0>         0.0660
     17 H2          0.9792    2.3376   -0.2900 H         1 <0>         0.0484
     18 H3         -0.3691    2.8966   -2.3168 H         1 <0>         0.0246
     19 H4         -0.2914    1.1519   -2.0813 H         1 <0>         0.0246
     20 H5         -1.7643    2.0349   -1.6447 H         1 <0>         0.0246
     21 H6          1.8996    0.4023    0.4116 H         1 <0>         0.0659
     22 H7         -0.2187    3.7889    1.1694 H         1 <0>         0.1185
     23 H8         -1.5703    3.6541    0.2721 H         1 <0>         0.1185
     24 H9         -1.3157   -3.3108   -0.2423 H         1 <0>         0.0655
     25 H10         0.7489    2.0152    1.9723 H         1 <0>         0.2103
     26 H11         1.0394   -3.7324   -0.5054 H         1 <0>         0.0655
     27 H12        -3.1260   -2.8342    0.9330 H         1 <0>         0.0660
     28 H13        -3.2506   -2.4224   -0.8363 H         1 <0>         0.0660
     29 H14        -4.3138   -1.6758    0.3493 H         1 <0>         0.0660
     30 H15         4.8803   -1.2522   -0.2033 H         1 <0>         0.0660
     31 H16         3.8320   -0.4940    0.9896 H         1 <0>         0.0660
     32 H17         3.7022   -0.0778   -0.7772 H         1 <0>         0.0660
@<TRIPOS>BOND
     1    1    5 1
     2    1   25 1
     3    2    9 1
     4    2   14 1
     5    3   11 1
     6    3   15 1
     7    4    6 1
     8    4   22 1
     9    4   23 1
    10    5    6 1
    11    5    7 1
    12    5   16 1
    13    6    8 1
    14    6   17 1
    15    7    9 ar
    16    7   10 ar
    17    8   18 1
    18    8   19 1
    19    8   20 1
    20    9   12 ar
    21   10   11 ar
    22   10   21 1
    23   11   13 ar
    24   12   13 ar
    25   12   24 1
    26   13   26 1
    27   14   27 1
    28   14   28 1
    29   14   29 1
    30   15   30 1
    31   15   31 1
    32   15   32 1
