@<TRIPOS>MOLECULE
DB00554
   36    38     0     0     0
SMALL
USER_CHARGES

@<TRIPOS>ATOM
      1 S1         -1.7344    1.7338    0.6932 S.o2      1 <0>         0.0754
      2 O1         -1.3187    1.6028    2.0766 O.2       1 <0>        -0.1498
      3 O2         -2.1324    3.0171    0.1481 O.2       1 <0>        -0.1498
      4 O3         -1.2006   -2.5410    0.5122 O.3       1 <0>        -0.5040
      5 O4          1.3641   -1.9327   -0.5147 O.2       1 <0>        -0.2683
      6 N1         -0.5580    1.0111   -0.3447 N.pl3     1 <0>        -0.1975
      7 N2          1.9646    0.2250    0.2133 N.am      1 <0>        -0.2652
      8 N3          4.0546    1.2862    0.6204 N.ar      1 <0>        -0.2401
      9 C1         -3.0690    0.6121    0.4745 C.ar      1 <0>         0.1194
     10 C2         -2.7527   -0.7347    0.2602 C.ar      1 <0>         0.0451
     11 C3         -0.3080   -0.3774   -0.0472 C.2       1 <0>         0.1547
     12 C4         -1.3430   -1.1942    0.2354 C.2       1 <0>         0.1534
     13 C5         -4.3808    1.0830    0.4989 C.ar      1 <0>        -0.0344
     14 C6         -0.6624    1.3285   -1.7988 C.3       1 <0>         0.0239
     15 C7         -3.8213   -1.6252    0.0829 C.ar      1 <0>        -0.0491
     16 C8          1.0942   -0.7928   -0.1462 C.2       1 <0>         0.2685
     17 C9         -5.4226    0.1794    0.3162 C.ar      1 <0>        -0.0599
     18 C10        -5.1447   -1.1712    0.1097 C.ar      1 <0>        -0.0610
     19 C11         3.3799    0.1792    0.2369 C.ar      1 <0>         0.1251
     20 C12         3.9871   -1.0085   -0.1379 C.ar      1 <0>        -0.0215
     21 C13         5.3763   -1.0636   -0.1177 C.ar      1 <0>        -0.0571
     22 C14         5.4035    1.1949    0.6275 C.ar      1 <0>         0.0297
     23 C15         6.1054    0.0548    0.2712 C.ar      1 <0>        -0.0435
     24 H1         -4.6049    2.1319    0.6646 H         1 <0>         0.0637
     25 H2          0.1766    0.8868   -2.3465 H         1 <0>         0.0446
     26 H3         -1.5966    0.9445   -2.2185 H         1 <0>         0.0446
     27 H4         -0.6104    2.4110   -1.9474 H         1 <0>         0.0446
     28 H5         -3.6466   -2.6847   -0.0897 H         1 <0>         0.0625
     29 H6         -6.4521    0.5249    0.3350 H         1 <0>         0.0618
     30 H7         -5.9596   -1.8753   -0.0333 H         1 <0>         0.0618
     31 H8          1.5734    1.1199    0.4986 H         1 <0>         0.1566
     32 H9         -0.2559   -2.7667    0.4882 H         1 <0>         0.2923
     33 H10         3.4894   -1.9119   -0.4496 H         1 <0>         0.0652
     34 H11         5.8916   -1.9757   -0.4041 H         1 <0>         0.0619
     35 H12         5.9253    2.0940    0.9382 H         1 <0>         0.0830
     36 H13         7.1889    0.0346    0.2945 H         1 <0>         0.0633
@<TRIPOS>BOND
     1    1    2 2
     2    1    3 2
     3    1    6 1
     4    1    9 1
     5    4   12 1
     6    4   32 1
     7    5   16 2
     8    6   11 1
     9    6   14 1
    10    7   16 am
    11    7   19 1
    12    7   31 1
    13    8   19 ar
    14    8   22 ar
    15    9   10 ar
    16    9   13 ar
    17   10   12 1
    18   10   15 ar
    19   11   12 2
    20   11   16 1
    21   13   17 ar
    22   13   24 1
    23   14   25 1
    24   14   26 1
    25   14   27 1
    26   15   18 ar
    27   15   28 1
    28   17   18 ar
    29   17   29 1
    30   18   30 1
    31   19   20 ar
    32   20   21 ar
    33   20   33 1
    34   21   23 ar
    35   21   34 1
    36   22   23 ar
    37   22   35 1
    38   23   36 1
