@<TRIPOS>MOLECULE
DB00228
   12    11     0     0     0
SMALL
USER_CHARGES

@<TRIPOS>ATOM
      1 Cl1         2.1140    1.7574    0.4745 Cl        1 <0>        -0.0763
      2 F1          0.2246   -1.5691   -0.4101 F         1 <0>        -0.1704
      3 F2          0.2506   -0.4428    1.4655 F         1 <0>        -0.1704
      4 F3          2.7005   -0.7282    0.3026 F         1 <0>        -0.2191
      5 F4         -2.7522    1.0298   -0.6472 F         1 <0>        -0.1782
      6 F5         -2.0826    0.1500    1.2289 F         1 <0>        -0.1782
      7 O1         -0.5819    0.5390   -0.4083 O.3       1 <0>        -0.2553
      8 C1          0.4061   -0.3347    0.1244 C.3       1 <0>         0.4059
      9 C2          1.7990    0.1498   -0.2124 C.3       1 <0>         0.2635
     10 C3         -1.9019    0.1183   -0.1134 C.3       1 <0>         0.3509
     11 H1          1.9538    0.2057   -1.2937 H         1 <0>         0.0914
     12 H2         -2.1299   -0.8754   -0.5109 H         1 <0>         0.1362
@<TRIPOS>BOND
     1    1    9 1
     2    2    8 1
     3    3    8 1
     4    4    9 1
     5    5   10 1
     6    6   10 1
     7    7    8 1
     8    7   10 1
     9    8    9 1
    10    9   11 1
    11   10   12 1
