@<TRIPOS>MOLECULE
DB00373
   45    46     0     0     0
SMALL
USER_CHARGES

@<TRIPOS>ATOM
      1 S1         -2.8846    3.2485   -2.3320 S.3       1 <0>         0.1206
      2 O1         -3.5839   -2.4556    0.8018 O.3       1 <0>        -0.3767
      3 O2         -0.7778    1.5877    0.1868 O.3       1 <0>        -0.4710
      4 O3          0.4883    1.7586    2.6902 O.3       1 <0>        -0.3872
      5 N1          2.6390    0.6967   -0.1258 N.3       1 <0>        -0.3088
      6 N2         -3.0969   -0.0458   -0.5669 N.pl3     1 <0>        -0.3060
      7 N3         -3.6346    1.7790   -2.0267 N.2       1 <0>        -0.1717
      8 N4         -1.5682    3.1357   -1.2978 N.2       1 <0>        -0.1530
      9 C1          3.1986   -0.6114   -0.4820 C.3       1 <0>         0.0108
     10 C2          1.8238    0.5943    1.0727 C.3       1 <0>         0.0256
     11 C3          1.2184    1.9416    1.4736 C.3       1 <0>         0.1016
     12 C4         -2.0604   -1.0826   -0.5021 C.3       1 <0>         0.0372
     13 C5         -4.4659   -0.5565   -0.4143 C.3       1 <0>         0.0372
     14 C6          2.0557   -1.5989   -0.7461 C.3       1 <0>        -0.0473
     15 C7          4.0632   -1.1057    0.6826 C.3       1 <0>        -0.0473
     16 C8          4.0560   -0.4493   -1.7415 C.3       1 <0>        -0.0473
     17 C9         -2.2599   -1.9223    0.7561 C.3       1 <0>         0.0634
     18 C10        -4.5524   -1.4065    0.8468 C.3       1 <0>         0.0634
     19 C11         0.2756    2.5177    0.4193 C.3       1 <0>         0.1183
     20 C12        -2.8557    1.1950   -1.1133 C.2       1 <0>         0.1942
     21 C13        -1.7300    1.9527   -0.7269 C.2       1 <0>         0.2652
     22 H1          2.0765    1.0433   -0.9018 H         1 <0>         0.1225
     23 H2          0.9978   -0.1172    0.9779 H         1 <0>         0.0451
     24 H3          2.4125    0.2696    1.9370 H         1 <0>         0.0451
     25 H4          2.0136    2.6692    1.6763 H         1 <0>         0.0640
     26 H5         -2.1672   -1.7229   -1.3869 H         1 <0>         0.0487
     27 H6         -1.0429   -0.6861   -0.5202 H         1 <0>         0.0487
     28 H7         -4.7167   -1.1598   -1.2950 H         1 <0>         0.0487
     29 H8         -5.1923    0.2616   -0.3430 H         1 <0>         0.0487
     30 H9          1.3131   -1.1837   -1.4375 H         1 <0>         0.0247
     31 H10         2.4472   -2.5106   -1.2144 H         1 <0>         0.0247
     32 H11         1.5400   -1.9300    0.1611 H         1 <0>         0.0247
     33 H12         3.4829   -1.4628    1.5400 H         1 <0>         0.0247
     34 H13         4.7598   -0.3328    1.0290 H         1 <0>         0.0247
     35 H14         4.6739   -1.9593    0.3623 H         1 <0>         0.0247
     36 H15         4.8723    0.2643   -1.5791 H         1 <0>         0.0247
     37 H16         4.5061   -1.4030   -2.0400 H         1 <0>         0.0247
     38 H17         3.4597   -0.0874   -2.5875 H         1 <0>         0.0247
     39 H18        -1.5596   -2.7635    0.7573 H         1 <0>         0.0575
     40 H19        -2.0734   -1.3325    1.6618 H         1 <0>         0.0575
     41 H20        -4.3944   -0.8039    1.7494 H         1 <0>         0.0575
     42 H21        -5.5427   -1.8665    0.9216 H         1 <0>         0.0575
     43 H22        -0.1512    3.4482    0.8163 H         1 <0>         0.0724
     44 H23         0.8199    2.7366   -0.5065 H         1 <0>         0.0724
     45 H24         1.1169    1.4563    3.3677 H         1 <0>         0.2100
@<TRIPOS>BOND
     1    1    7 1
     2    1    8 1
     3    2   17 1
     4    2   18 1
     5    3   19 1
     6    3   21 1
     7    4   11 1
     8    4   45 1
     9    5    9 1
    10    5   10 1
    11    5   22 1
    12    6   12 1
    13    6   13 1
    14    6   20 1
    15    7   20 2
    16    8   21 2
    17    9   14 1
    18    9   15 1
    19    9   16 1
    20   10   11 1
    21   10   23 1
    22   10   24 1
    23   11   19 1
    24   11   25 1
    25   12   17 1
    26   12   26 1
    27   12   27 1
    28   13   18 1
    29   13   28 1
    30   13   29 1
    31   14   30 1
    32   14   31 1
    33   14   32 1
    34   15   33 1
    35   15   34 1
    36   15   35 1
    37   16   36 1
    38   16   37 1
    39   16   38 1
    40   17   39 1
    41   17   40 1
    42   18   41 1
    43   18   42 1
    44   19   43 1
    45   19   44 1
    46   20   21 1
