@<TRIPOS>MOLECULE
DB00872
   64    69     0     0     0
SMALL
USER_CHARGES

@<TRIPOS>ATOM
      1 O1          2.7147   -3.3085   -1.0382 O.2       1 <0>        -0.2696
      2 O2         -3.6242   -0.1490   -2.1568 O.2       1 <0>        -0.2698
      3 N1          3.1572   -1.4296    0.3166 N.am      1 <0>        -0.2665
      4 N2          4.1070    2.7538   -0.4991 N.pl3     1 <0>        -0.3453
      5 N3          6.0963    1.7932   -0.5398 N.2       1 <0>        -0.2325
      6 N4         -3.2464   -1.5145   -0.2805 N.am      1 <0>        -0.2815
      7 C1          2.5503    0.9676    0.2524 C.3       1 <0>         0.0058
      8 C2          2.6339   -0.2932    1.0932 C.3       1 <0>         0.0255
      9 C3          3.9006    1.4551   -0.1051 C.cat     1 <0>         0.0450
     10 C4          5.1498    0.8647   -0.1404 C.2       1 <0>         0.0939
     11 C5          4.5877   -1.5939    0.2954 C.ar      1 <0>         0.0458
     12 C6          5.5050   -0.5226    0.1644 C.ar      1 <0>         0.0235
     13 C7          5.4378    2.9088   -0.7446 C.cat     1 <0>         0.1048
     14 C8          2.3376   -2.3429   -0.3746 C.2       1 <0>         0.2509
     15 C9          5.0920   -2.9031    0.4669 C.ar      1 <0>        -0.0396
     16 C10         6.8866   -0.8141    0.2352 C.ar      1 <0>        -0.0507
     17 C11         0.8852   -2.1278   -0.3504 C.ar      1 <0>         0.0373
     18 C12         6.4599   -3.1610    0.5242 C.ar      1 <0>        -0.0600
     19 C13         7.3587   -2.1140    0.4140 C.ar      1 <0>        -0.0610
     20 C14         5.9962    4.1998   -1.1842 C.3       1 <0>        -0.0065
     21 C15         0.2864   -1.3482   -1.3349 C.ar      1 <0>        -0.0479
     22 C16         0.1186   -2.7050    0.6570 C.ar      1 <0>        -0.0479
     23 C17        -1.8668   -1.7199   -0.3043 C.ar      1 <0>         0.0337
     24 C18        -1.0932   -1.1438   -1.3119 C.ar      1 <0>        -0.0398
     25 C19        -1.2610   -2.5006    0.6800 C.ar      1 <0>        -0.0398
     26 C20        -5.4762   -0.7124   -0.8672 C.ar      1 <0>         0.0447
     27 C21        -5.9901    0.2845   -0.0628 C.ar      1 <0>        -0.0058
     28 C22        -4.0232   -0.7670   -1.1758 C.2       1 <0>         0.2488
     29 C23        -5.1541    1.3177    0.5175 C.ar      1 <0>        -0.0172
     30 C24        -6.2765   -1.6952   -1.4176 C.ar      1 <0>        -0.0490
     31 C25        -7.3594    0.3006    0.2030 C.ar      1 <0>        -0.0533
     32 C26        -7.6457   -1.6791   -1.1518 C.ar      1 <0>        -0.0610
     33 C27        -8.1871   -0.6811   -0.3415 C.ar      1 <0>        -0.0611
     34 C28        -4.5733    1.1193    1.7683 C.ar      1 <0>        -0.0540
     35 C29        -4.9350    2.5050   -0.1775 C.ar      1 <0>        -0.0540
     36 C30        -3.7694    2.1132    2.3267 C.ar      1 <0>        -0.0612
     37 C31        -4.1310    3.4989    0.3809 C.ar      1 <0>        -0.0612
     38 C32        -3.5483    3.3029    1.6330 C.ar      1 <0>        -0.0617
     39 H1          1.9767    0.8012   -0.6641 H         1 <0>         0.0344
     40 H2          2.0241    1.7390    0.8281 H         1 <0>         0.0344
     41 H3          3.2635   -0.1492    1.9817 H         1 <0>         0.0472
     42 H4          1.6373   -0.5339    1.4736 H         1 <0>         0.0472
     43 H5          3.3954    3.4677   -0.5841 H         1 <0>         0.1668
     44 H6          4.4236   -3.7477    0.6199 H         1 <0>         0.0636
     45 H7          7.6316   -0.0256    0.1397 H         1 <0>         0.0625
     46 H8          6.8173   -4.1757    0.6718 H         1 <0>         0.0618
     47 H9          8.4269   -2.3028    0.4624 H         1 <0>         0.0618
     48 H10         7.0787    4.1244   -1.3277 H         1 <0>         0.0307
     49 H11         5.5504    4.5125   -2.1335 H         1 <0>         0.0307
     50 H12         5.8076    4.9784   -0.4384 H         1 <0>         0.0307
     51 H13         0.8804   -0.9005   -2.1273 H         1 <0>         0.0626
     52 H14         0.5820   -3.3143    1.4284 H         1 <0>         0.0626
     53 H15        -1.4870   -0.5287   -2.1084 H         1 <0>         0.0636
     54 H16        -1.8516   -2.9552    1.4714 H         1 <0>         0.0636
     55 H17        -3.7412   -1.9628    0.4880 H         1 <0>         0.1551
     56 H18        -5.8622   -2.4755   -2.0497 H         1 <0>         0.0625
     57 H19        -7.7996    1.0706    0.8325 H         1 <0>         0.0624
     58 H20        -8.2902   -2.4435   -1.5757 H         1 <0>         0.0618
     59 H21        -9.2532   -0.6688   -0.1348 H         1 <0>         0.0618
     60 H22        -4.7348    0.1972    2.3215 H         1 <0>         0.0624
     61 H23        -5.3812    2.6731   -1.1547 H         1 <0>         0.0624
     62 H24        -3.3151    1.9603    3.3012 H         1 <0>         0.0618
     63 H25        -3.9584    4.4250   -0.1593 H         1 <0>         0.0618
     64 H26        -2.9220    4.0764    2.0675 H         1 <0>         0.0618
@<TRIPOS>BOND
     1    1   14 2
     2    2   28 2
     3    3    8 1
     4    3   11 1
     5    3   14 am
     6    4    9 1
     7    4   13 2
     8    4   43 1
     9    5   10 2
    10    5   13 1
    11    6   23 1
    12    6   28 am
    13    6   55 1
    14    7    8 1
    15    7    9 1
    16    7   39 1
    17    7   40 1
    18    8   41 1
    19    8   42 1
    20    9   10 1
    21   10   12 1
    22   11   12 ar
    23   11   15 ar
    24   12   16 ar
    25   13   20 1
    26   14   17 1
    27   15   18 ar
    28   15   44 1
    29   16   19 ar
    30   16   45 1
    31   17   21 ar
    32   17   22 ar
    33   18   19 ar
    34   18   46 1
    35   19   47 1
    36   20   48 1
    37   20   49 1
    38   20   50 1
    39   21   24 ar
    40   21   51 1
    41   22   25 ar
    42   22   52 1
    43   23   24 ar
    44   23   25 ar
    45   24   53 1
    46   25   54 1
    47   26   27 ar
    48   26   28 1
    49   26   30 ar
    50   27   29 1
    51   27   31 ar
    52   29   34 ar
    53   29   35 ar
    54   30   32 ar
    55   30   56 1
    56   31   33 ar
    57   31   57 1
    58   32   33 ar
    59   32   58 1
    60   33   59 1
    61   34   36 ar
    62   34   60 1
    63   35   37 ar
    64   35   61 1
    65   36   38 ar
    66   36   62 1
    67   37   38 ar
    68   37   63 1
    69   38   64 1
