@<TRIPOS>MOLECULE
DB00952
   48    50     0     0     0
SMALL
USER_CHARGES

@<TRIPOS>ATOM
      1 S1          5.2943   -1.2726    0.9932 S.o2      1 <0>         0.0294
      2 O1          6.3027   -0.3677    1.5200 O.2       1 <0>        -0.1582
      3 O2          4.6638   -2.2527    1.8629 O.2       1 <0>        -0.1582
      4 N1         -4.8141   -1.1914   -0.0231 N.3       1 <0>        -0.3053
      5 N2         -0.8930    3.5997   -0.9610 N.pl3     1 <0>        -0.3604
      6 N3          5.9200   -2.0929   -0.3699 N.pl3     1 <0>        -0.1976
      7 C1         -2.3106    0.3376   -0.0151 C.3       1 <0>        -0.0116
      8 C2         -2.8842   -0.3006   -1.2908 C.3       1 <0>        -0.0333
      9 C3         -3.4433    0.6033    0.9897 C.3       1 <0>        -0.0333
     10 C4         -3.7359   -1.5293   -0.9619 C.3       1 <0>        -0.0009
     11 C5         -4.2749   -0.6582    1.2353 C.3       1 <0>        -0.0009
     12 C6         -1.4819    1.5697   -0.3007 C.2       1 <0>        -0.0192
     13 C7         -0.0986    1.7355   -0.0277 C.ar      1 <0>         0.0033
     14 C8         -1.9451    2.7280   -0.8733 C.cat     1 <0>         0.0062
     15 C9          0.2474    3.0203   -0.4522 C.ar      1 <0>         0.0468
     16 C10        -5.6525   -2.3621    0.2354 C.3       1 <0>        -0.0128
     17 C11         0.8980    0.9176    0.5406 C.ar      1 <0>        -0.0491
     18 C12         2.2011    1.4140    0.6628 C.ar      1 <0>        -0.0451
     19 C13         1.5456    3.5298   -0.3362 C.ar      1 <0>        -0.0375
     20 C14         3.2623    0.5527    1.2635 C.3       1 <0>        -0.0068
     21 C15         2.5175    2.7004    0.2305 C.ar      1 <0>        -0.0565
     22 C16         4.0160   -0.3090    0.2480 C.3       1 <0>         0.0857
     23 C17         4.9970   -2.8472   -1.2369 C.3       1 <0>         0.0055
     24 H1         -1.6497   -0.4110    0.4437 H         1 <0>         0.0350
     25 H2         -2.0685   -0.5919   -1.9642 H         1 <0>         0.0283
     26 H3         -3.4969    0.4272   -1.8394 H         1 <0>         0.0283
     27 H4         -4.1002    1.4028    0.6218 H         1 <0>         0.0283
     28 H5         -3.0260    0.9558    1.9412 H         1 <0>         0.0283
     29 H6         -4.1642   -1.9064   -1.8987 H         1 <0>         0.0427
     30 H7         -3.0958   -2.3229   -0.5544 H         1 <0>         0.0427
     31 H8         -3.6609   -1.4102    1.7482 H         1 <0>         0.0427
     32 H9         -5.0988   -0.3961    1.9104 H         1 <0>         0.0427
     33 H10        -2.9252    3.0159   -1.2275 H         1 <0>         0.0810
     34 H11        -6.0956   -2.7312   -0.6962 H         1 <0>         0.0391
     35 H12        -6.4863   -2.1000    0.8962 H         1 <0>         0.0391
     36 H13        -5.0895   -3.1808    0.6981 H         1 <0>         0.0391
     37 H14        -0.9451    4.5335   -1.3438 H         1 <0>         0.1653
     38 H15         0.6596   -0.0873    0.8781 H         1 <0>         0.0627
     39 H16         1.7930    4.5309   -0.6732 H         1 <0>         0.0638
     40 H17         3.9743    1.1849    1.8106 H         1 <0>         0.0329
     41 H18         2.8174   -0.0914    2.0338 H         1 <0>         0.0329
     42 H19         3.5332    3.0774    0.3271 H         1 <0>         0.0621
     43 H20         4.4838    0.3212   -0.5160 H         1 <0>         0.0519
     44 H21         3.3122   -0.9901   -0.2399 H         1 <0>         0.0519
     45 H22         6.6649   -1.6114   -0.8903 H         1 <0>         0.1473
     46 H23         4.2289   -3.3582   -0.6511 H         1 <0>         0.0405
     47 H24         5.5690   -3.6057   -1.7795 H         1 <0>         0.0405
     48 H25         4.5345   -2.1798   -1.9681 H         1 <0>         0.0405
@<TRIPOS>BOND
     1    1    2 2
     2    1    3 2
     3    1    6 1
     4    1   22 1
     5    4   10 1
     6    4   11 1
     7    4   16 1
     8    5   14 1
     9    5   15 2
    10    5   37 1
    11    6   23 1
    12    6   45 1
    13    7    8 1
    14    7    9 1
    15    7   12 1
    16    7   24 1
    17    8   10 1
    18    8   25 1
    19    8   26 1
    20    9   11 1
    21    9   27 1
    22    9   28 1
    23   10   29 1
    24   10   30 1
    25   11   31 1
    26   11   32 1
    27   12   13 2
    28   12   14 1
    29   13   15 ar
    30   13   17 ar
    31   14   33 1
    32   15   19 ar
    33   16   34 1
    34   16   35 1
    35   16   36 1
    36   17   18 ar
    37   17   38 1
    38   18   20 1
    39   18   21 ar
    40   19   21 ar
    41   19   39 1
    42   20   22 1
    43   20   40 1
    44   20   41 1
    45   21   42 1
    46   22   43 1
    47   22   44 1
    48   23   46 1
    49   23   47 1
    50   23   48 1
