@<TRIPOS>MOLECULE
DB00296
   46    47     0     0     0
SMALL
USER_CHARGES

@<TRIPOS>ATOM
      1 O1          0.2657    0.0629   -1.5422 O.2       1 <0>        -0.2737
      2 N1         -2.1076   -0.1929   -0.3008 N.3       1 <0>        -0.2915
      3 N2          1.3914   -0.3602    0.4803 N.am      1 <0>        -0.2837
      4 C1         -0.9313   -0.8575    0.2900 C.3       1 <0>         0.0875
      5 C2         -0.9541   -2.3753    0.0624 C.3       1 <0>        -0.0288
      6 C3         -3.3590   -0.7726    0.2197 C.3       1 <0>        -0.0004
      7 C4         -2.2474   -2.9999    0.5664 C.3       1 <0>        -0.0500
      8 C5         -3.4437   -2.2767   -0.0353 C.3       1 <0>        -0.0401
      9 C6         -2.1093    1.2527   -0.0429 C.3       1 <0>        -0.0006
     10 C7          0.3009   -0.3272   -0.3797 C.2       1 <0>         0.2345
     11 C8         -3.2788    1.9182   -0.7638 C.3       1 <0>        -0.0430
     12 C9         -3.2907    3.4210   -0.5299 C.3       1 <0>        -0.0641
     13 C10         2.7162    0.0554    0.2072 C.ar      1 <0>         0.0393
     14 C11         3.6240   -0.8570   -0.3101 C.ar      1 <0>        -0.0290
     15 C12         3.0852    1.3680    0.4623 C.ar      1 <0>        -0.0290
     16 C13         4.9302   -0.4476   -0.5784 C.ar      1 <0>        -0.0571
     17 C14         4.3915    1.7773    0.1941 C.ar      1 <0>        -0.0571
     18 C15         3.2434   -2.2748   -0.5901 C.3       1 <0>        -0.0379
     19 C16         2.1199    2.3637    1.0194 C.3       1 <0>        -0.0379
     20 C17         5.3139    0.8694   -0.3263 C.ar      1 <0>        -0.0611
     21 H1         -0.8968   -0.6529    1.3691 H         1 <0>         0.0559
     22 H2         -0.1031   -2.8479    0.5683 H         1 <0>         0.0285
     23 H3         -0.8376   -2.6010   -1.0067 H         1 <0>         0.0285
     24 H4         -4.2396   -0.3668   -0.2832 H         1 <0>         0.0427
     25 H5         -3.4660   -0.5763    1.2948 H         1 <0>         0.0427
     26 H6         -2.2870   -2.9342    1.6606 H         1 <0>         0.0266
     27 H7         -2.2792   -4.0632    0.3049 H         1 <0>         0.0266
     28 H8         -3.4848   -2.4679   -1.1151 H         1 <0>         0.0278
     29 H9         -4.3694   -2.6746    0.3958 H         1 <0>         0.0278
     30 H10        -2.1674    1.4573    1.0346 H         1 <0>         0.0427
     31 H11        -1.1900    1.7273   -0.4022 H         1 <0>         0.0427
     32 H12        -3.2254    1.7204   -1.8411 H         1 <0>         0.0275
     33 H13        -4.2506    1.5672   -0.4081 H         1 <0>         0.0275
     34 H14         1.2814   -0.8348    1.3738 H         1 <0>         0.1549
     35 H15        -3.3857    3.6524    0.5358 H         1 <0>         0.0230
     36 H16        -2.3702    3.8829   -0.9013 H         1 <0>         0.0230
     37 H17        -4.1347    3.8809   -1.0539 H         1 <0>         0.0230
     38 H18         5.6617   -1.1413   -0.9844 H         1 <0>         0.0621
     39 H19         4.7074    2.7998    0.3833 H         1 <0>         0.0621
     40 H20         2.4891   -2.3183   -1.3825 H         1 <0>         0.0278
     41 H21         4.1017   -2.8701   -0.9205 H         1 <0>         0.0278
     42 H22         2.8479   -2.7531    0.3123 H         1 <0>         0.0278
     43 H23         1.3277    2.5734    0.2934 H         1 <0>         0.0278
     44 H24         1.6715    1.9907    1.9463 H         1 <0>         0.0278
     45 H25         2.6081    3.3147    1.2591 H         1 <0>         0.0278
     46 H26         6.3308    1.1883   -0.5356 H         1 <0>         0.0618
@<TRIPOS>BOND
     1    1   10 2
     2    2    4 1
     3    2    6 1
     4    2    9 1
     5    3   10 am
     6    3   13 1
     7    3   34 1
     8    4    5 1
     9    4   10 1
    10    4   21 1
    11    5    7 1
    12    5   22 1
    13    5   23 1
    14    6    8 1
    15    6   24 1
    16    6   25 1
    17    7    8 1
    18    7   26 1
    19    7   27 1
    20    8   28 1
    21    8   29 1
    22    9   11 1
    23    9   30 1
    24    9   31 1
    25   11   12 1
    26   11   32 1
    27   11   33 1
    28   12   35 1
    29   12   36 1
    30   12   37 1
    31   13   14 ar
    32   13   15 ar
    33   14   16 ar
    34   14   18 1
    35   15   17 ar
    36   15   19 1
    37   16   20 ar
    38   16   38 1
    39   17   20 ar
    40   17   39 1
    41   18   40 1
    42   18   41 1
    43   18   42 1
    44   19   43 1
    45   19   44 1
    46   19   45 1
    47   20   46 1
