@<TRIPOS>MOLECULE
DB00787
   27    28     0     0     0
SMALL
USER_CHARGES

@<TRIPOS>ATOM
      1 O1          1.8140   -0.2955    0.0752 O.3       1 <0>        -0.3570
      2 O2         -4.3928   -1.7942    1.2653 O.2       1 <0>        -0.2633
      3 O3          3.2017    1.7170    1.4364 O.3       1 <0>        -0.3927
      4 N1         -0.2310   -1.2498   -0.4131 N.pl3     1 <0>        -0.2922
      5 N2         -1.6600    0.7180   -0.3788 N.pl3     1 <0>        -0.3122
      6 N3         -1.6931   -2.6923    0.4918 N.2       1 <0>        -0.2286
      7 N4         -3.8501    0.3353    0.5291 N.2       1 <0>        -0.1756
      8 N5         -3.1790    2.4556   -0.2522 N.pl3     1 <0>        -0.3289
      9 C1         -1.3722   -0.5679   -0.1614 C.2       1 <0>         0.1480
     10 C2          0.9933   -0.7535   -0.9908 C.3       1 <0>         0.1268
     11 C3         -2.2550   -1.4511    0.3879 C.2       1 <0>         0.1721
     12 C4         -0.4744   -2.5403    0.0012 C.cat     1 <0>         0.1001
     13 C5         -3.5840   -1.0181    0.7713 C.2       1 <0>         0.3021
     14 C6         -2.9394    1.1269   -0.0078 C.2       1 <0>         0.1952
     15 C7          3.0621    0.1889   -0.4011 C.3       1 <0>         0.0730
     16 C8          3.8914    0.6621    0.7771 C.3       1 <0>         0.0676
     17 H1          1.4765   -1.5750   -1.5310 H         1 <0>         0.0801
     18 H2          0.7555    0.0596   -1.6843 H         1 <0>         0.0801
     19 H3          0.2713   -3.3195   -0.0783 H         1 <0>         0.1030
     20 H4         -1.0053    1.3788   -0.7843 H         1 <0>         0.1700
     21 H5          3.5926   -0.6077   -0.9339 H         1 <0>         0.0583
     22 H6          2.8792    1.0252   -1.0858 H         1 <0>         0.0583
     23 H7          4.8644    1.0362    0.4472 H         1 <0>         0.0580
     24 H8          4.0452   -0.1427    1.5028 H         1 <0>         0.0580
     25 H9         -2.4718    3.0536   -0.6653 H         1 <0>         0.1451
     26 H10        -4.0732    2.8776   -0.0267 H         1 <0>         0.1451
     27 H11         2.3341    1.3726    1.7095 H         1 <0>         0.2095
@<TRIPOS>BOND
     1    1   10 1
     2    1   15 1
     3    2   13 2
     4    3   16 1
     5    3   27 1
     6    4    9 1
     7    4   10 1
     8    4   12 2
     9    5    9 2
    10    5   14 1
    11    5   20 1
    12    6   11 2
    13    6   12 1
    14    7   13 1
    15    7   14 2
    16    8   14 1
    17    8   25 1
    18    8   26 1
    19    9   11 1
    20   10   17 1
    21   10   18 1
    22   11   13 1
    23   12   19 1
    24   15   16 1
    25   15   21 1
    26   15   22 1
    27   16   23 1
    28   16   24 1
