@<TRIPOS>MOLECULE
DB00186
   31    33     0     0     0
SMALL
USER_CHARGES

@<TRIPOS>ATOM
      1 Cl1        -0.3820   -4.4383   -1.1068 Cl        1 <0>        -0.0835
      2 Cl2         1.1057    1.0130    2.6175 Cl        1 <0>        -0.0829
      3 O1         -1.9349    3.3781   -1.3997 O.3       1 <0>        -0.3636
      4 O2         -2.8959    2.9428    1.0054 O.2       1 <0>        -0.2705
      5 N1         -2.5936    0.6810    0.9175 N.am      1 <0>        -0.2812
      6 N2         -0.2486    1.8457   -0.5736 N.2       1 <0>        -0.2428
      7 C1         -0.7444   -0.5438   -0.2109 C.ar      1 <0>         0.0232
      8 C2          0.1476    0.6508   -0.2969 C.2       1 <0>         0.0793
      9 C3         -1.9838   -0.5000    0.4471 C.ar      1 <0>         0.0428
     10 C4          1.6015    0.4801   -0.0121 C.ar      1 <0>         0.0190
     11 C5         -1.6499    2.0852   -0.8700 C.3       1 <0>         0.2246
     12 C6         -0.2654   -1.7670   -0.7079 C.ar      1 <0>        -0.0324
     13 C7         -2.4057    1.9624    0.4419 C.2       1 <0>         0.2686
     14 C8         -2.6712   -1.6987    0.6892 C.ar      1 <0>        -0.0385
     15 C9         -0.9846   -2.9438   -0.5027 C.ar      1 <0>         0.0417
     16 C10        -2.1781   -2.9125    0.2105 C.ar      1 <0>        -0.0416
     17 C11         2.1162    0.6245    1.2719 C.ar      1 <0>         0.0501
     18 C12         2.4386    0.1672   -1.0785 C.ar      1 <0>        -0.0512
     19 C13         3.4829    0.4541    1.4923 C.ar      1 <0>        -0.0427
     20 C14         3.8054   -0.0031   -0.8578 C.ar      1 <0>        -0.0611
     21 C15         4.3275    0.1404    0.4275 C.ar      1 <0>        -0.0603
     22 H1         -2.0333    1.3680   -1.6052 H         1 <0>         0.0952
     23 H2         -3.2962    0.5692    1.6442 H         1 <0>         0.1550
     24 H3          0.6742   -1.8249   -1.2482 H         1 <0>         0.0639
     25 H4         -3.6177   -1.6945    1.2259 H         1 <0>         0.0637
     26 H5         -2.7425   -3.8230    0.3939 H         1 <0>         0.0633
     27 H6          2.0475    0.0623   -2.0872 H         1 <0>         0.0625
     28 H7          3.9060    0.5626    2.4878 H         1 <0>         0.0632
     29 H8          4.4634   -0.2452   -1.6873 H         1 <0>         0.0618
     30 H9          5.3918    0.0084    0.5990 H         1 <0>         0.0618
     31 H10        -2.8804    3.3989   -1.6269 H         1 <0>         0.2125
@<TRIPOS>BOND
     1    1   15 1
     2    2   17 1
     3    3   11 1
     4    3   31 1
     5    4   13 2
     6    5    9 1
     7    5   13 am
     8    5   23 1
     9    6    8 2
    10    6   11 1
    11    7    8 1
    12    7    9 ar
    13    7   12 ar
    14    8   10 1
    15    9   14 ar
    16   10   17 ar
    17   10   18 ar
    18   11   13 1
    19   11   22 1
    20   12   15 ar
    21   12   24 1
    22   14   16 ar
    23   14   25 1
    24   15   16 ar
    25   16   26 1
    26   17   19 ar
    27   18   20 ar
    28   18   27 1
    29   19   21 ar
    30   19   28 1
    31   20   21 ar
    32   20   29 1
    33   21   30 1
