@<TRIPOS>MOLECULE
DB00143
   37    36     0     0     0
SMALL
USER_CHARGES

@<TRIPOS>ATOM
      1 S1          2.1229    2.4628   -0.5272 S.3       1 <0>        -0.1759
      2 O1         -1.0246   -0.9499   -1.8622 O.2       1 <0>        -0.2758
      3 O2          2.2915   -0.6958    1.5539 O.2       1 <0>        -0.2737
      4 O3         -4.2296    1.3573    1.9389 O.3       1 <0>        -0.4795
      5 O4         -5.4478    1.9024    0.1057 O.2       1 <0>        -0.2493
      6 O5          5.2438    1.0957    0.6422 O.3       1 <0>        -0.4795
      7 O6          6.7573   -0.1680    1.7650 O.2       1 <0>        -0.2492
      8 N1          0.2424   -0.1350   -0.0940 N.am      1 <0>        -0.3033
      9 N2         -5.8991   -0.7796   -0.3428 N.3       1 <0>        -0.3184
     10 N3          3.8106   -0.9257   -0.1843 N.am      1 <0>        -0.3033
     11 C1         -3.4645   -0.5957   -0.5282 C.3       1 <0>        -0.0191
     12 C2         -2.1481   -0.2159    0.1532 C.3       1 <0>         0.0259
     13 C3          1.5379   -0.2825   -0.7157 C.3       1 <0>         0.1081
     14 C4         -4.6835   -0.3958    0.3791 C.3       1 <0>         0.1037
     15 C5         -0.9405   -0.4856   -0.7284 C.2       1 <0>         0.2137
     16 C6          1.9376    0.9512   -1.5289 C.3       1 <0>         0.0177
     17 C7          2.5601   -0.6595    0.3548 C.2       1 <0>         0.2346
     18 C8         -4.8497    1.0624    0.7665 C.2       1 <0>         0.3217
     19 C9          4.9501   -1.2807    0.6290 C.3       1 <0>         0.1089
     20 C10         5.7486   -0.0831    1.0752 C.2       1 <0>         0.3221
     21 H1         -3.4152   -1.6455   -0.8468 H         1 <0>         0.0290
     22 H2         -3.5731    0.0023   -1.4435 H         1 <0>         0.0290
     23 H3         -2.1373    0.8513    0.4016 H         1 <0>         0.0359
     24 H4         -2.0289   -0.7853    1.0824 H         1 <0>         0.0359
     25 H5          1.4773   -1.1350   -1.4051 H         1 <0>         0.0603
     26 H6         -4.6057   -1.0073    1.2850 H         1 <0>         0.0574
     27 H7          0.2016    0.2648    0.8395 H         1 <0>         0.1495
     28 H8          2.8819    0.7909   -2.0579 H         1 <0>         0.0397
     29 H9          1.1764    1.1585   -2.2891 H         1 <0>         0.0397
     30 H10        -6.7005   -0.7255    0.2852 H         1 <0>         0.1190
     31 H11        -5.8313   -1.7551   -0.6310 H         1 <0>         0.1190
     32 H12         3.9440   -0.8908   -1.1902 H         1 <0>         0.1493
     33 H13         5.5941   -1.9223    0.0212 H         1 <0>         0.0577
     34 H14         4.6074   -1.8215    1.5160 H         1 <0>         0.0577
     35 H15         2.4429    3.2788   -1.5421 H         1 <0>         0.1017
     36 H16        -4.3290    2.3038    2.1768 H         1 <0>         0.2951
     37 H17         5.7800    1.8589    0.9462 H         1 <0>         0.2951
@<TRIPOS>BOND
     1    1   16 1
     2    1   35 1
     3    2   15 2
     4    3   17 2
     5    4   18 1
     6    4   36 1
     7    5   18 2
     8    6   20 1
     9    6   37 1
    10    7   20 2
    11    8   13 1
    12    8   15 am
    13    8   27 1
    14    9   14 1
    15    9   30 1
    16    9   31 1
    17   10   17 am
    18   10   19 1
    19   10   32 1
    20   11   12 1
    21   11   14 1
    22   11   21 1
    23   11   22 1
    24   12   15 1
    25   12   23 1
    26   12   24 1
    27   13   16 1
    28   13   17 1
    29   13   25 1
    30   14   18 1
    31   14   26 1
    32   16   28 1
    33   16   29 1
    34   19   20 1
    35   19   33 1
    36   19   34 1
