@<TRIPOS>MOLECULE
DB00648
   28    29     0     0     0
SMALL
USER_CHARGES

@<TRIPOS>ATOM
      1 Cl1        -1.2173    3.4008   -0.8898 Cl        1 <0>        -0.1036
      2 Cl2         1.6511    3.2762   -0.5319 Cl        1 <0>        -0.1036
      3 Cl3         2.1068    0.0666   -2.7757 Cl        1 <0>        -0.0832
      4 Cl4        -5.0145   -2.0006    0.5168 Cl        1 <0>        -0.0835
      5 C1          0.0742    0.9652   -0.6385 C.3       1 <0>         0.0405
      6 C2         -1.1907    0.2289   -0.3520 C.ar      1 <0>        -0.0373
      7 C3          1.3061    0.1657   -0.1709 C.ar      1 <0>        -0.0191
      8 C4          0.1068    2.4509   -0.1379 C.3       1 <0>         0.1186
      9 C5         -1.6170   -0.7855   -1.2094 C.ar      1 <0>        -0.0565
     10 C6         -1.9472    0.5539    0.7739 C.ar      1 <0>        -0.0565
     11 C7          2.2373   -0.2554   -1.0848 C.ar      1 <0>         0.0448
     12 C8          1.4011   -0.0871    1.1756 C.ar      1 <0>        -0.0565
     13 C9         -2.7998   -1.4744   -0.9412 C.ar      1 <0>        -0.0431
     14 C10        -3.1298   -0.1352    1.0423 C.ar      1 <0>        -0.0431
     15 C11         3.3378   -0.9781   -0.6239 C.ar      1 <0>        -0.0431
     16 C12         2.5017   -0.8096    1.6366 C.ar      1 <0>        -0.0614
     17 C13        -3.5563   -1.1493    0.1847 C.ar      1 <0>         0.0410
     18 C14         3.4699   -1.2553    0.7367 C.ar      1 <0>        -0.0604
     19 H1          0.0874    1.0662   -1.7294 H         1 <0>         0.0424
     20 H2          0.0019    2.5364    0.9463 H         1 <0>         0.0643
     21 H3         -1.0387   -1.0509   -2.0905 H         1 <0>         0.0621
     22 H4         -1.6466    1.3199    1.4803 H         1 <0>         0.0621
     23 H5          0.6679    0.2607    1.8948 H         1 <0>         0.0621
     24 H6         -3.1195   -2.2626   -1.6181 H         1 <0>         0.0632
     25 H7         -3.7070    0.1252    1.9258 H         1 <0>         0.0632
     26 H8          4.1011   -1.3324   -1.3121 H         1 <0>         0.0632
     27 H9          2.6065   -1.0228    2.6963 H         1 <0>         0.0618
     28 H10         4.3270   -1.8173    1.0958 H         1 <0>         0.0618
@<TRIPOS>BOND
     1    1    8 1
     2    2    8 1
     3    3   11 1
     4    4   17 1
     5    5    6 1
     6    5    7 1
     7    5    8 1
     8    5   19 1
     9    6    9 ar
    10    6   10 ar
    11    7   11 ar
    12    7   12 ar
    13    8   20 1
    14    9   13 ar
    15    9   21 1
    16   10   14 ar
    17   10   22 1
    18   11   15 ar
    19   12   16 ar
    20   12   23 1
    21   13   17 ar
    22   13   24 1
    23   14   17 ar
    24   14   25 1
    25   15   18 ar
    26   15   26 1
    27   16   18 ar
    28   16   27 1
    29   18   28 1
