@<TRIPOS>MOLECULE
DB00612
   54    54     0     0     0
SMALL
USER_CHARGES

@<TRIPOS>ATOM
      1 O1         -3.4803    1.8972    0.5132 O.3       1 <0>        -0.4894
      2 O2         -6.1935    1.2999    0.4012 O.3       1 <0>        -0.3872
      3 O3          2.7478    1.7760   -0.1045 O.3       1 <0>        -0.3729
      4 O4          4.5380   -0.3549    0.1839 O.3       1 <0>        -0.3748
      5 N1         -3.8979   -1.3770   -0.7281 N.3       1 <0>        -0.3112
      6 C1         -4.8646   -0.6758    0.1059 C.3       1 <0>         0.0254
      7 C2         -5.2780    0.6683   -0.4983 C.3       1 <0>         0.1015
      8 C3         -3.4794   -2.6245   -0.1037 C.3       1 <0>         0.0021
      9 C4         -4.1012    1.6119   -0.7364 C.3       1 <0>         0.1166
     10 C5         -2.5080   -3.3535   -1.0265 C.3       1 <0>        -0.0499
     11 C6         -2.8419   -2.3482    1.2551 C.3       1 <0>        -0.0499
     12 C7         -2.1336    2.1440    0.4890 C.ar      1 <0>         0.1206
     13 C8          0.6021    2.6447    0.4406 C.ar      1 <0>        -0.0217
     14 C9          2.0686    2.9128    0.4144 C.3       1 <0>         0.0728
     15 C10         5.1420   -1.5571   -0.2725 C.3       1 <0>         0.0532
     16 C11        -1.3537    1.8192    1.5939 C.ar      1 <0>        -0.0196
     17 C12        -1.5578    2.7170   -0.6400 C.ar      1 <0>        -0.0196
     18 C13         4.1526    1.9843   -0.1489 C.3       1 <0>         0.0714
     19 C14         4.8214    0.7338   -0.6866 C.3       1 <0>         0.0713
     20 C15         0.0181    2.0705    1.5696 C.ar      1 <0>        -0.0529
     21 C16        -0.1858    2.9680   -0.6643 C.ar      1 <0>        -0.0529
     22 C17         4.7531   -2.6972    0.6564 C.3       1 <0>        -0.0390
     23 C18         6.6499   -1.3671   -0.3361 C.3       1 <0>        -0.0390
     24 H1         -5.7624   -1.2913    0.2485 H         1 <0>         0.0450
     25 H2         -4.4803   -0.4635    1.1087 H         1 <0>         0.0450
     26 H3         -5.8040    0.5085   -1.4470 H         1 <0>         0.0640
     27 H4         -4.3484   -3.2794    0.0404 H         1 <0>         0.0455
     28 H5         -4.3051   -1.5628   -1.6441 H         1 <0>         0.1223
     29 H6         -4.4730    2.5575   -1.1487 H         1 <0>         0.0723
     30 H7         -3.4160    1.1489   -1.4568 H         1 <0>         0.0723
     31 H8         -1.6042   -2.7604   -1.2069 H         1 <0>         0.0245
     32 H9         -2.2002   -4.3094   -0.5891 H         1 <0>         0.0245
     33 H10        -2.9709   -3.5684   -1.9962 H         1 <0>         0.0245
     34 H11        -3.5802   -2.0953    2.0223 H         1 <0>         0.0245
     35 H12        -2.0985   -1.5445    1.2016 H         1 <0>         0.0245
     36 H13        -2.3232   -3.2428    1.6197 H         1 <0>         0.0245
     37 H14        -6.9572    0.7069    0.5057 H         1 <0>         0.2100
     38 H15         2.2819    3.7912   -0.2077 H         1 <0>         0.0610
     39 H16         2.4303    3.1347    1.4265 H         1 <0>         0.0610
     40 H17         4.7592   -1.7950   -1.2730 H         1 <0>         0.0590
     41 H18        -1.8046    1.3699    2.4741 H         1 <0>         0.0654
     42 H19        -2.1393    3.0125   -1.5079 H         1 <0>         0.0654
     43 H20         4.4352    0.5053   -1.6866 H         1 <0>         0.0583
     44 H21         5.8921    0.9462   -0.7414 H         1 <0>         0.0583
     45 H22         4.3814    2.8384   -0.7959 H         1 <0>         0.0583
     46 H23         4.5145    2.1897    0.8654 H         1 <0>         0.0583
     47 H24         0.6215    1.8115    2.4356 H         1 <0>         0.0622
     48 H25         0.2572    3.4203   -1.5477 H         1 <0>         0.0622
     49 H26         5.0930   -2.5001    1.6791 H         1 <0>         0.0254
     50 H27         3.6632   -2.7973    0.7013 H         1 <0>         0.0254
     51 H28         5.1777   -3.6486    0.3223 H         1 <0>         0.0254
     52 H29         7.0300   -0.8572    0.5558 H         1 <0>         0.0254
     53 H30         6.9531   -0.7845   -1.2120 H         1 <0>         0.0254
     54 H31         7.1595   -2.3330   -0.4235 H         1 <0>         0.0254
@<TRIPOS>BOND
     1    1    9 1
     2    1   12 1
     3    2    7 1
     4    2   37 1
     5    3   14 1
     6    3   18 1
     7    4   15 1
     8    4   19 1
     9    5    6 1
    10    5    8 1
    11    5   28 1
    12    6    7 1
    13    6   24 1
    14    6   25 1
    15    7    9 1
    16    7   26 1
    17    8   10 1
    18    8   11 1
    19    8   27 1
    20    9   29 1
    21    9   30 1
    22   10   31 1
    23   10   32 1
    24   10   33 1
    25   11   34 1
    26   11   35 1
    27   11   36 1
    28   12   16 ar
    29   12   17 ar
    30   13   14 1
    31   13   20 ar
    32   13   21 ar
    33   14   38 1
    34   14   39 1
    35   15   22 1
    36   15   23 1
    37   15   40 1
    38   16   20 ar
    39   16   41 1
    40   17   21 ar
    41   17   42 1
    42   18   19 1
    43   18   45 1
    44   18   46 1
    45   19   43 1
    46   19   44 1
    47   20   47 1
    48   21   48 1
    49   22   49 1
    50   22   50 1
    51   22   51 1
    52   23   52 1
    53   23   53 1
    54   23   54 1
