@<TRIPOS>MOLECULE
DB00473
   42    43     0     0     0
SMALL
USER_CHARGES

@<TRIPOS>ATOM
      1 O1         -2.1895   -1.6752    0.2035 O.3       1 <0>        -0.4569
      2 O2         -2.3211   -1.1765   -2.0400 O.2       1 <0>        -0.2450
      3 N1          1.4713   -1.3246   -0.2367 N.3       1 <0>        -0.3098
      4 C1          2.3163   -0.1575   -0.4820 C.3       1 <0>         0.0078
      5 C2          2.1846    0.8341    0.6794 C.3       1 <0>        -0.0375
      6 C3          3.7719   -0.5983   -0.6700 C.3       1 <0>        -0.0375
      7 C4          3.1128    2.0334    0.4951 C.3       1 <0>        -0.0516
      8 C5          4.6980    0.6029   -0.8531 C.3       1 <0>        -0.0516
      9 C6          4.5619    1.5984    0.2955 C.3       1 <0>        -0.0530
     10 C7          0.0764   -0.9331   -0.1052 C.3       1 <0>         0.0331
     11 C8         -0.8425   -2.1382    0.1096 C.3       1 <0>         0.1130
     12 C9         -0.5300   -2.9083    1.3864 C.3       1 <0>        -0.0265
     13 C10        -2.6622   -1.0044   -0.8800 C.2       1 <0>         0.3395
     14 C11        -3.6773   -0.0014   -0.4699 C.ar      1 <0>         0.0590
     15 C12        -4.6882    0.3229   -1.3513 C.ar      1 <0>        -0.0478
     16 C13        -3.5784    0.5748    0.7800 C.ar      1 <0>        -0.0478
     17 C14        -5.6420    1.2649   -0.9661 C.ar      1 <0>        -0.0610
     18 C15        -4.5324    1.5168    1.1651 C.ar      1 <0>        -0.0610
     19 C16        -5.5641    1.8618    0.2920 C.ar      1 <0>        -0.0617
     20 H1          1.9934    0.3347   -1.4098 H         1 <0>         0.0460
     21 H2          2.4143    0.3416    1.6334 H         1 <0>         0.0280
     22 H3          1.1757    1.2501    0.7589 H         1 <0>         0.0280
     23 H4          3.8593   -1.2568   -1.5430 H         1 <0>         0.0280
     24 H5          4.1065   -1.1785    0.2004 H         1 <0>         0.0280
     25 H6          3.0437    2.6915    1.3689 H         1 <0>         0.0266
     26 H7          2.7855    2.6193   -0.3728 H         1 <0>         0.0266
     27 H8          4.4628    1.1038   -1.8003 H         1 <0>         0.0266
     28 H9          5.7365    0.2602   -0.9224 H         1 <0>         0.0266
     29 H10         5.1869    2.4766    0.0983 H         1 <0>         0.0265
     30 H11         4.9355    1.1411    1.2200 H         1 <0>         0.0265
     31 H12         1.5715   -1.9882   -1.0043 H         1 <0>         0.1223
     32 H13        -0.0900   -0.2812    0.7584 H         1 <0>         0.0460
     33 H14        -0.2221   -0.3614   -0.9901 H         1 <0>         0.0460
     34 H15        -0.7695   -2.8334   -0.7370 H         1 <0>         0.0744
     35 H16        -1.2558   -3.7166    1.5291 H         1 <0>         0.0266
     36 H17        -0.6100   -2.2584    2.2649 H         1 <0>         0.0266
     37 H18         0.4719   -3.3467    1.3640 H         1 <0>         0.0266
     38 H19        -4.7613   -0.1376   -2.3320 H         1 <0>         0.0626
     39 H20        -2.7778    0.3346    1.4731 H         1 <0>         0.0626
     40 H21        -6.4458    1.5331   -1.6454 H         1 <0>         0.0618
     41 H22        -4.4702    1.9842    2.1437 H         1 <0>         0.0618
     42 H23        -6.3065    2.5957    0.5917 H         1 <0>         0.0618
@<TRIPOS>BOND
     1    1   11 1
     2    1   13 1
     3    2   13 2
     4    3    4 1
     5    3   10 1
     6    3   31 1
     7    4    5 1
     8    4    6 1
     9    4   20 1
    10    5    7 1
    11    5   21 1
    12    5   22 1
    13    6    8 1
    14    6   23 1
    15    6   24 1
    16    7    9 1
    17    7   25 1
    18    7   26 1
    19    8    9 1
    20    8   27 1
    21    8   28 1
    22    9   29 1
    23    9   30 1
    24   10   11 1
    25   10   32 1
    26   10   33 1
    27   11   12 1
    28   11   34 1
    29   12   35 1
    30   12   36 1
    31   12   37 1
    32   13   14 1
    33   14   15 ar
    34   14   16 ar
    35   15   17 ar
    36   15   38 1
    37   16   18 ar
    38   16   39 1
    39   17   19 ar
    40   17   40 1
    41   18   19 ar
    42   18   41 1
    43   19   42 1
