@<TRIPOS>MOLECULE
DB00119
   10     9     0     0     0
SMALL
USER_CHARGES

@<TRIPOS>ATOM
      1 O1          2.1558   -0.4711   -0.0121 O.3       1 <0>        -0.4751
      2 O2         -0.0153   -1.7845    0.0159 O.2       1 <0>        -0.2854
      3 O3          0.9906    1.5047    0.0192 O.2       1 <0>        -0.2419
      4 C1         -0.1721   -0.5727    0.0032 C.2       1 <0>         0.2360
      5 C2         -1.5005    0.1208   -0.0024 C.3       1 <0>         0.0052
      6 C3          1.0560    0.2927   -0.0141 C.2       1 <0>         0.3723
      7 H1         -1.5964    0.7451    0.8894 H         1 <0>         0.0311
      8 H2         -2.2997   -0.6257    0.0049 H         1 <0>         0.0311
      9 H3         -1.5974    0.7286   -0.9054 H         1 <0>         0.0311
     10 H4          2.9790    0.0622    0.0013 H         1 <0>         0.2955
@<TRIPOS>BOND
     1    1    6 1
     2    1   10 1
     3    2    4 2
     4    3    6 2
     5    4    5 1
     6    4    6 1
     7    5    7 1
     8    5    8 1
     9    5    9 1
