@<TRIPOS>MOLECULE
DB00308
   62    62     0     0     0
SMALL
USER_CHARGES

@<TRIPOS>ATOM
      1 S1          7.7193   -0.7491    1.1740 S.o2      1 <0>         0.0403
      2 O1          1.9033   -0.0541   -3.4632 O.3       1 <0>        -0.3872
      3 O2          9.1531   -0.9409    1.2865 O.2       1 <0>        -0.1555
      4 O3          7.1348    0.5644    1.3584 O.2       1 <0>        -0.1555
      5 N1         -0.9384    1.9654    0.3998 N.3       1 <0>        -0.3026
      6 N2          7.1897   -1.4566   -0.3043 N.pl3     1 <0>        -0.2209
      7 C1         -1.8485    0.9932    0.9936 C.3       1 <0>        -0.0011
      8 C2          0.4267    1.7582    0.8867 C.3       1 <0>        -0.0010
      9 C3         -3.0920    0.8277    0.1201 C.3       1 <0>        -0.0402
     10 C4          1.0840    0.5669    0.1890 C.3       1 <0>        -0.0376
     11 C5         -4.0559   -0.1971    0.7237 C.3       1 <0>        -0.0519
     12 C6          1.1730    0.7946   -1.3229 C.3       1 <0>        -0.0215
     13 C7         -5.3393   -0.3808   -0.0917 C.3       1 <0>        -0.0530
     14 C8         -1.3797    3.3302    0.6923 C.3       1 <0>        -0.0039
     15 C9          1.8506   -0.3648   -2.0696 C.3       1 <0>         0.0802
     16 C10        -6.2692   -1.4580    0.4711 C.3       1 <0>        -0.0533
     17 C11         3.2586   -0.6527   -1.6029 C.ar      1 <0>        -0.0190
     18 C12        -7.5376   -1.5899   -0.3730 C.3       1 <0>        -0.0559
     19 C13        -0.4399    4.3545    0.0792 C.3       1 <0>        -0.0524
     20 C14         4.2235    0.3542   -1.6353 C.ar      1 <0>        -0.0543
     21 C15         3.5942   -1.9254   -1.1411 C.ar      1 <0>        -0.0543
     22 C16        -8.4810   -2.6362    0.1991 C.3       1 <0>        -0.0653
     23 C17         5.5236    0.0883   -1.2058 C.ar      1 <0>        -0.0390
     24 C18         4.8942   -2.1913   -0.7117 C.ar      1 <0>        -0.0390
     25 C19         5.8591   -1.1844   -0.7439 C.ar      1 <0>         0.0477
     26 C20         6.9576   -1.8542    2.3415 C.3       1 <0>         0.0736
     27 H1         -1.3878    0.0026    1.0732 H         1 <0>         0.0426
     28 H2         -2.1277    1.2754    2.0176 H         1 <0>         0.0426
     29 H3          1.0949    2.6009    0.6934 H         1 <0>         0.0426
     30 H4          0.4384    1.6088    1.9745 H         1 <0>         0.0426
     31 H5         -2.8001    0.5028   -0.8867 H         1 <0>         0.0278
     32 H6         -3.6273    1.7768    0.0097 H         1 <0>         0.0278
     33 H7          2.0896    0.4524    0.6111 H         1 <0>         0.0278
     34 H8          0.5611   -0.3724    0.3953 H         1 <0>         0.0278
     35 H9         -3.5452   -1.1645    0.8085 H         1 <0>         0.0266
     36 H10        -4.3234    0.1098    1.7426 H         1 <0>         0.0266
     37 H11         0.1696    0.9240   -1.7483 H         1 <0>         0.0294
     38 H12         1.6948    1.7377   -1.5311 H         1 <0>         0.0294
     39 H13        -5.8744    0.5760   -0.1348 H         1 <0>         0.0265
     40 H14        -5.0728   -0.6409   -1.1237 H         1 <0>         0.0265
     41 H15        -1.4579    3.5125    1.7717 H         1 <0>         0.0424
     42 H16        -2.3712    3.5052    0.2614 H         1 <0>         0.0424
     43 H17         1.2324   -1.2649   -1.9665 H         1 <0>         0.0643
     44 H18        -5.7427   -2.4195    0.5001 H         1 <0>         0.0265
     45 H19        -6.5375   -1.2045    1.5038 H         1 <0>         0.0265
     46 H20        -8.0574   -0.6257   -0.4182 H         1 <0>         0.0263
     47 H21        -7.2740   -1.8653   -1.4008 H         1 <0>         0.0263
     48 H22        -0.9509    5.3227    0.0205 H         1 <0>         0.0242
     49 H23        -0.1458    4.0860   -0.9414 H         1 <0>         0.0242
     50 H24         0.4567    4.5245    0.6828 H         1 <0>         0.0242
     51 H25         3.9846    1.3486   -2.0019 H         1 <0>         0.0622
     52 H26         2.8532   -2.7196   -1.1094 H         1 <0>         0.0622
     53 H27        -8.7903   -2.3718    1.2153 H         1 <0>         0.0230
     54 H28        -9.3802   -2.7149   -0.4200 H         1 <0>         0.0230
     55 H29        -8.0025   -3.6203    0.2302 H         1 <0>         0.0230
     56 H30         0.9909    0.0931   -3.7656 H         1 <0>         0.2102
     57 H31         6.2677    0.8792   -1.2507 H         1 <0>         0.0637
     58 H32         5.1440   -3.1864   -0.3525 H         1 <0>         0.0637
     59 H33         7.4871   -2.4303   -0.4532 H         1 <0>         0.1733
     60 H34         7.2939   -2.8729    2.1396 H         1 <0>         0.0482
     61 H35         5.8724   -1.7736    2.2608 H         1 <0>         0.0482
     62 H36         7.2738   -1.5536    3.3430 H         1 <0>         0.0482
@<TRIPOS>BOND
     1    1    3 2
     2    1    4 2
     3    1    6 1
     4    1   26 1
     5    2   15 1
     6    2   56 1
     7    5    7 1
     8    5    8 1
     9    5   14 1
    10    6   25 1
    11    6   59 1
    12    7    9 1
    13    7   27 1
    14    7   28 1
    15    8   10 1
    16    8   29 1
    17    8   30 1
    18    9   11 1
    19    9   31 1
    20    9   32 1
    21   10   12 1
    22   10   33 1
    23   10   34 1
    24   11   13 1
    25   11   35 1
    26   11   36 1
    27   12   15 1
    28   12   37 1
    29   12   38 1
    30   13   16 1
    31   13   39 1
    32   13   40 1
    33   14   19 1
    34   14   41 1
    35   14   42 1
    36   15   17 1
    37   15   43 1
    38   16   18 1
    39   16   44 1
    40   16   45 1
    41   17   20 ar
    42   17   21 ar
    43   18   22 1
    44   18   46 1
    45   18   47 1
    46   19   48 1
    47   19   49 1
    48   19   50 1
    49   20   23 ar
    50   20   51 1
    51   21   24 ar
    52   21   52 1
    53   22   53 1
    54   22   54 1
    55   22   55 1
    56   23   25 ar
    57   23   57 1
    58   24   25 ar
    59   24   58 1
    60   26   60 1
    61   26   61 1
    62   26   62 1
