@<TRIPOS>MOLECULE
DB00218
   53    57     0     0     0
SMALL
USER_CHARGES

@<TRIPOS>ATOM
      1 F1         -0.9863   -3.1048    0.1507 F         1 <0>        -0.2034
      2 O1          0.4797    1.3826    0.3453 O.3       1 <0>        -0.4911
      3 O2          4.0222   -3.4534   -0.2064 O.2       1 <0>        -0.2863
      4 O3          6.4220   -2.7226   -0.9606 O.3       1 <0>        -0.4770
      5 O4          7.1986   -0.9423    0.2465 O.2       1 <0>        -0.2449
      6 N1         -1.5416   -0.4263    0.3635 N.pl3     1 <0>        -0.3230
      7 N2         -4.5611    1.3857   -0.7044 N.3       1 <0>        -0.3114
      8 N3          3.2494    0.5375    0.1039 N.pl3     1 <0>        -0.3397
      9 C1         -3.8241   -0.3432    0.9892 C.3       1 <0>        -0.0084
     10 C2         -3.4809    0.8893    0.1440 C.3       1 <0>         0.0275
     11 C3         -2.4386   -0.8160    1.4546 C.3       1 <0>         0.0167
     12 C4         -2.1954    0.4748   -0.5882 C.3       1 <0>         0.0281
     13 C5         -4.5518   -1.4238    0.1790 C.3       1 <0>        -0.0462
     14 C6          3.1067    2.0085    0.2093 C.3       1 <0>         0.0348
     15 C7         -5.7057   -0.8147   -0.6078 C.3       1 <0>        -0.0401
     16 C8          3.7083    2.9077   -0.8170 C.3       1 <0>        -0.0302
     17 C9          2.2180    2.7575   -0.7255 C.3       1 <0>        -0.0302
     18 C10        -5.2152    0.3341   -1.4851 C.3       1 <0>        -0.0038
     19 C11        -0.2362   -0.8550    0.2473 C.ar      1 <0>         0.1097
     20 C12         2.1491   -0.3667    0.1188 C.ar      1 <0>         0.0973
     21 C13         0.8173    0.0633    0.2365 C.ar      1 <0>         0.1679
     22 C14         2.3877   -1.7540    0.0122 C.ar      1 <0>         0.0524
     23 C15         0.0201   -2.2189    0.1408 C.ar      1 <0>         0.1487
     24 C16         4.5348    0.0457   -0.0147 C.2       1 <0>         0.0232
     25 C17         1.3311   -2.6731    0.0231 C.ar      1 <0>        -0.0116
     26 C18         4.8700   -1.2459   -0.1216 C.2       1 <0>         0.1220
     27 C19         3.7813   -2.2561   -0.1139 C.2       1 <0>         0.2036
     28 C20         6.2879   -1.5898   -0.2389 C.2       1 <0>         0.3420
     29 C21         0.4056    1.9224    1.6616 C.3       1 <0>         0.0790
     30 H1         -4.4496   -0.0685    1.8474 H         1 <0>         0.0331
     31 H2         -3.2177    1.7031    0.8343 H         1 <0>         0.0479
     32 H3         -2.1436   -0.2879    2.3687 H         1 <0>         0.0467
     33 H4         -2.4261   -1.8913    1.6587 H         1 <0>         0.0467
     34 H5         -2.3968   -0.0753   -1.5137 H         1 <0>         0.0479
     35 H6         -1.6049    1.3585   -0.8461 H         1 <0>         0.0479
     36 H7         -4.9273   -2.2031    0.8523 H         1 <0>         0.0269
     37 H8         -3.8644   -1.9197   -0.5180 H         1 <0>         0.0269
     38 H9          3.1773    2.3507    1.2368 H         1 <0>         0.0528
     39 H10        -6.1733   -1.5838   -1.2328 H         1 <0>         0.0278
     40 H11        -6.4754   -0.4522    0.0851 H         1 <0>         0.0278
     41 H12        -4.2027    2.1027   -1.3344 H         1 <0>         0.1223
     42 H13         4.1974    2.4766   -1.6819 H         1 <0>         0.0286
     43 H14         4.1429    3.8408   -0.4794 H         1 <0>         0.0286
     44 H15         1.6790    3.6274   -0.3684 H         1 <0>         0.0286
     45 H16         1.7597    2.2672   -1.5775 H         1 <0>         0.0286
     46 H17        -4.5416   -0.0437   -2.2625 H         1 <0>         0.0424
     47 H18        -6.0738    0.7739   -2.0045 H         1 <0>         0.0424
     48 H19         5.2964    0.8200   -0.0070 H         1 <0>         0.0819
     49 H20         1.5101   -3.7415   -0.0587 H         1 <0>         0.0654
     50 H21         1.2005    1.5391    2.3098 H         1 <0>         0.0660
     51 H22        -0.5645    1.6798    2.1051 H         1 <0>         0.0660
     52 H23         0.4843    3.0115    1.6063 H         1 <0>         0.0660
     53 H24         7.3615   -2.9865   -1.0615 H         1 <0>         0.2954
@<TRIPOS>BOND
     1    1   23 1
     2    2   21 1
     3    2   29 1
     4    3   27 2
     5    4   28 1
     6    4   53 1
     7    5   28 2
     8    6   11 1
     9    6   12 1
    10    6   19 1
    11    7   10 1
    12    7   18 1
    13    7   41 1
    14    8   14 1
    15    8   20 1
    16    8   24 2
    17    9   10 1
    18    9   11 1
    19    9   13 1
    20    9   30 1
    21   10   12 1
    22   10   31 1
    23   11   32 1
    24   11   33 1
    25   12   34 1
    26   12   35 1
    27   13   15 1
    28   13   36 1
    29   13   37 1
    30   14   16 1
    31   14   17 1
    32   14   38 1
    33   15   18 1
    34   15   39 1
    35   15   40 1
    36   16   17 1
    37   16   42 1
    38   16   43 1
    39   17   44 1
    40   17   45 1
    41   18   46 1
    42   18   47 1
    43   19   21 ar
    44   19   23 ar
    45   20   21 ar
    46   20   22 ar
    47   22   25 ar
    48   22   27 1
    49   23   25 ar
    50   24   26 1
    51   24   48 1
    52   25   49 1
    53   26   27 1
    54   26   28 1
    55   29   50 1
    56   29   51 1
    57   29   52 1
