@<TRIPOS>MOLECULE
DB00306
   32    32     0     0     0
SMALL
USER_CHARGES

@<TRIPOS>ATOM
      1 O1         -1.7385   -0.2280   -1.9044 O.2       1 <0>        -0.2742
      2 O2         -0.1941    0.7561    2.4196 O.2       1 <0>        -0.2742
      3 O3         -1.2829    4.1188   -0.5068 O.2       1 <0>        -0.2520
      4 N1         -1.4165    1.9432   -1.2375 N.am      1 <0>        -0.2390
      5 N2         -0.6444    2.4349    0.9222 N.am      1 <0>        -0.2390
      6 C1         -0.3987    0.1428    0.0825 C.3       1 <0>         0.1293
      7 C2          1.0539    0.0838   -0.4232 C.3       1 <0>        -0.0214
      8 C3         -0.8289   -1.2540    0.5541 C.3       1 <0>        -0.0123
      9 C4          1.9887   -0.3033    0.7337 C.3       1 <0>        -0.0519
     10 C5         -1.2651    0.5717   -1.0974 C.2       1 <0>         0.2360
     11 C6         -0.4219    1.1089    1.2627 C.2       1 <0>         0.2360
     12 C7          1.1465   -0.8840   -1.6014 C.3       1 <0>        -0.0610
     13 C8          3.4591   -0.3263    0.3410 C.3       1 <0>        -0.0650
     14 C9         -2.2772   -1.2684    0.9142 C.2       1 <0>        -0.0897
     15 C10        -1.1100    2.9174   -0.2950 C.2       1 <0>         0.3122
     16 C11        -3.1854   -2.0392    0.3056 C.2       1 <0>        -0.1026
     17 H1          1.3589    1.0753   -0.7866 H         1 <0>         0.0313
     18 H2         -0.2876   -1.5795    1.4491 H         1 <0>         0.0322
     19 H3         -0.6638   -2.0254   -0.2034 H         1 <0>         0.0322
     20 H4          1.7525   -1.2911    1.1403 H         1 <0>         0.0266
     21 H5          1.9320    0.4169    1.5532 H         1 <0>         0.0266
     22 H6          1.0192   -1.9326   -1.3209 H         1 <0>         0.0233
     23 H7          2.1522   -0.8217   -2.0358 H         1 <0>         0.0233
     24 H8          0.4849   -0.6473   -2.4355 H         1 <0>         0.0233
     25 H9          4.0825   -0.4882    1.2267 H         1 <0>         0.0230
     26 H10         3.7609    0.6221   -0.1147 H         1 <0>         0.0230
     27 H11         3.6760   -1.1358   -0.3621 H         1 <0>         0.0230
     28 H12        -1.8716    2.2653   -2.0870 H         1 <0>         0.1591
     29 H13        -0.5305    3.1194    1.6646 H         1 <0>         0.1591
     30 H14        -2.6095   -0.6344    1.7322 H         1 <0>         0.0567
     31 H15        -4.2235   -2.0146    0.6191 H         1 <0>         0.0532
     32 H16        -2.9171   -2.7027   -0.5089 H         1 <0>         0.0532
@<TRIPOS>BOND
     1    1   10 2
     2    2   11 2
     3    3   15 2
     4    4   10 am
     5    4   15 am
     6    4   28 1
     7    5   11 am
     8    5   15 am
     9    5   29 1
    10    6    7 1
    11    6    8 1
    12    6   10 1
    13    6   11 1
    14    7    9 1
    15    7   12 1
    16    7   17 1
    17    8   14 1
    18    8   18 1
    19    8   19 1
    20    9   13 1
    21    9   20 1
    22    9   21 1
    23   12   22 1
    24   12   23 1
    25   12   24 1
    26   13   25 1
    27   13   26 1
    28   13   27 1
    29   14   16 2
    30   14   30 1
    31   16   31 1
    32   16   32 1
