@<TRIPOS>MOLECULE
DB00766
   23    24     0     0     0
SMALL
USER_CHARGES

@<TRIPOS>ATOM
      1 O1         -0.0034    1.1638    0.7698 O.3       1 <0>        -0.4723
      2 O2          2.9914    0.2000   -1.9683 O.2       1 <0>        -0.2753
      3 O3          0.3981   -3.2844   -0.3244 O.3       1 <0>        -0.4790
      4 O4          0.5235   -2.2150    1.6848 O.2       1 <0>        -0.2484
      5 O5         -3.5158    1.4325   -0.8191 O.3       1 <0>        -0.3909
      6 N1          1.7428   -0.2349   -0.0133 N.am      1 <0>        -0.2451
      7 C1          1.4217    0.9130    0.8388 C.3       1 <0>         0.1784
      8 C2          0.5421   -0.9447   -0.3659 C.3       1 <0>         0.1829
      9 C3          2.3782    1.7457   -0.0334 C.3       1 <0>         0.0786
     10 C4          2.5123    0.4745   -0.8915 C.2       1 <0>         0.2244
     11 C5         -0.5106    0.0376    0.0934 C.2       1 <0>         0.1300
     12 C6          0.4886   -2.1852    0.4636 C.2       1 <0>         0.3332
     13 C7         -1.8211   -0.0794   -0.1475 C.2       1 <0>        -0.0188
     14 C8         -2.8449    0.9029    0.3157 C.3       1 <0>         0.0658
     15 H1          1.7548    0.7723    1.8733 H         1 <0>         0.0957
     16 H2          0.4999   -1.1312   -1.4430 H         1 <0>         0.0700
     17 H3          3.3068    2.0555    0.4521 H         1 <0>         0.0412
     18 H4          1.9233    2.5889   -0.5588 H         1 <0>         0.0412
     19 H5         -2.1822   -0.9475   -0.6936 H         1 <0>         0.0628
     20 H6         -2.4200    1.7404    0.8755 H         1 <0>         0.0602
     21 H7         -3.5811    0.4091    0.9578 H         1 <0>         0.0602
     22 H8          0.3626   -4.1111    0.2025 H         1 <0>         0.2951
     23 H9         -3.9670    0.6973   -1.2684 H         1 <0>         0.2098
@<TRIPOS>BOND
     1    1    7 1
     2    1   11 1
     3    2   10 2
     4    3   12 1
     5    3   22 1
     6    4   12 2
     7    5   14 1
     8    5   23 1
     9    6    7 1
    10    6    8 1
    11    6   10 am
    12    7    9 1
    13    7   15 1
    14    8   11 1
    15    8   12 1
    16    8   16 1
    17    9   10 1
    18    9   17 1
    19    9   18 1
    20   11   13 2
    21   13   14 1
    22   13   19 1
    23   14   20 1
    24   14   21 1
