@<TRIPOS>MOLECULE
DB00639
   42    44     0     0     0
SMALL
USER_CHARGES

@<TRIPOS>ATOM
      1 Cl1        -0.7140    1.6976    2.6801 Cl        1 <0>        -0.0824
      2 Cl2         3.2821    2.6325   -0.9980 Cl        1 <0>        -0.0824
      3 Cl3        -7.0675   -0.9723    0.0097 Cl        1 <0>        -0.0835
      4 S1          2.0262    0.6704    1.2668 S.3       1 <0>        -0.1172
      5 N1          3.2719   -1.8973    0.0787 N.pl3     1 <0>        -0.3358
      6 N2          5.3942   -2.3672    0.4272 N.2       1 <0>        -0.2441
      7 C1          1.2088   -0.4688    0.0866 C.3       1 <0>         0.0282
      8 C2         -0.3214   -0.4682    0.2841 C.3       1 <0>        -0.0352
      9 C3          1.8241   -1.8655    0.2873 C.3       1 <0>         0.0363
     10 C4         -1.1183   -1.3528   -0.6893 C.3       1 <0>        -0.0266
     11 C5         -2.6134   -1.2563   -0.5123 C.ar      1 <0>        -0.0472
     12 C6          1.2569    2.2212    0.8270 C.ar      1 <0>         0.0448
     13 C7          3.9339   -1.3099   -0.9463 C.cat     1 <0>         0.0240
     14 C8          4.1697   -2.5195    0.8806 C.cat     1 <0>         0.0959
     15 C9         -3.2523   -2.1217    0.3623 C.ar      1 <0>        -0.0572
     16 C10        -3.3231   -0.3048   -1.2286 C.ar      1 <0>        -0.0572
     17 C11         5.2542   -1.6135   -0.7111 C.2       1 <0>         0.0454
     18 C12        -4.6350   -2.0332    0.5246 C.ar      1 <0>        -0.0431
     19 C13        -4.7057   -0.2163   -1.0662 C.ar      1 <0>        -0.0431
     20 C14         0.0726    2.6376    1.4555 C.ar      1 <0>         0.0558
     21 C15         1.8257    3.0468   -0.1557 C.ar      1 <0>         0.0558
     22 C16        -5.3617   -1.0805   -0.1897 C.ar      1 <0>         0.0410
     23 C17        -0.5273    3.8487    1.1104 C.ar      1 <0>        -0.0422
     24 C18         1.2257    4.2578   -0.5008 C.ar      1 <0>        -0.0422
     25 C19         0.0491    4.6589    0.1323 C.ar      1 <0>        -0.0589
     26 H1          1.4186   -0.1096   -0.9270 H         1 <0>         0.0433
     27 H2         -0.5640   -0.7838    1.3064 H         1 <0>         0.0280
     28 H3         -0.7138    0.5395    0.1318 H         1 <0>         0.0280
     29 H4          1.4181   -2.5807   -0.4368 H         1 <0>         0.0503
     30 H5          1.6185   -2.2539    1.2924 H         1 <0>         0.0503
     31 H6         -0.8573   -1.0871   -1.7221 H         1 <0>         0.0314
     32 H7         -0.8214   -2.4022   -0.5742 H         1 <0>         0.0314
     33 H8          3.4525   -0.7584   -1.7413 H         1 <0>         0.0825
     34 H9          3.8931   -3.0656    1.7722 H         1 <0>         0.1029
     35 H10        -2.6947   -2.8653    0.9244 H         1 <0>         0.0621
     36 H11        -2.8206    0.3740   -1.9118 H         1 <0>         0.0621
     37 H12         6.1104   -1.3314   -1.3061 H         1 <0>         0.0845
     38 H13        -5.1327   -2.7129    1.2115 H         1 <0>         0.0632
     39 H14        -5.2588    0.5312   -1.6289 H         1 <0>         0.0632
     40 H15        -1.4446    4.1779    1.5922 H         1 <0>         0.0632
     41 H16         1.6593    4.9029   -1.2611 H         1 <0>         0.0632
     42 H17        -0.4182    5.6017   -0.1366 H         1 <0>         0.0618
@<TRIPOS>BOND
     1    1   20 1
     2    2   21 1
     3    3   22 1
     4    4    7 1
     5    4   12 1
     6    5    9 1
     7    5   13 1
     8    5   14 2
     9    6   14 1
    10    6   17 2
    11    7    8 1
    12    7    9 1
    13    7   26 1
    14    8   10 1
    15    8   27 1
    16    8   28 1
    17    9   29 1
    18    9   30 1
    19   10   11 1
    20   10   31 1
    21   10   32 1
    22   11   15 ar
    23   11   16 ar
    24   12   20 ar
    25   12   21 ar
    26   13   17 1
    27   13   33 1
    28   14   34 1
    29   15   18 ar
    30   15   35 1
    31   16   19 ar
    32   16   36 1
    33   17   37 1
    34   18   22 ar
    35   18   38 1
    36   19   22 ar
    37   19   39 1
    38   20   23 ar
    39   21   24 ar
    40   23   25 ar
    41   23   40 1
    42   24   25 ar
    43   24   41 1
    44   25   42 1
