@<TRIPOS>MOLECULE
DB00121
   32    33     0     0     0
SMALL
USER_CHARGES

@<TRIPOS>ATOM
      1 S1          2.5900    1.6113   -1.2308 S.3       1 <0>        -0.1536
      2 O1          2.9334   -3.1424   -1.0236 O.2       1 <0>        -0.2528
      3 O2         -5.9242   -0.6800    0.7581 O.3       1 <0>        -0.4806
      4 O3         -5.1998   -0.1305   -1.3228 O.2       1 <0>        -0.2510
      5 N1          1.6378   -1.3861   -0.1716 N.am      1 <0>        -0.2937
      6 N2          3.8746   -1.2925    0.0629 N.am      1 <0>        -0.2940
      7 C1          1.8639   -0.1658    0.5795 C.3       1 <0>         0.0555
      8 C2          3.4028   -0.0633    0.6696 C.3       1 <0>         0.0529
      9 C3          1.2941    1.0964   -0.0737 C.3       1 <0>         0.0255
     10 C4          3.9126    1.1628   -0.0844 C.3       1 <0>         0.0143
     11 C5         -0.0520    0.9330   -0.7596 C.3       1 <0>        -0.0394
     12 C6         -1.1652    0.4626    0.1799 C.3       1 <0>        -0.0515
     13 C7          2.8282   -2.0673   -0.4491 C.2       1 <0>         0.3002
     14 C8         -2.5545    0.3328   -0.4509 C.3       1 <0>        -0.0430
     15 C9         -3.6374   -0.0822    0.5443 C.3       1 <0>         0.0448
     16 C10        -4.9737   -0.2905   -0.1316 C.2       1 <0>         0.3047
     17 H1          1.4221   -0.3225    1.5703 H         1 <0>         0.0528
     18 H2          3.7576   -0.0564    1.7057 H         1 <0>         0.0525
     19 H3          1.2203    1.8858    0.6843 H         1 <0>         0.0431
     20 H4          4.0535    2.0008    0.6058 H         1 <0>         0.0395
     21 H5          4.8528    0.9871   -0.6152 H         1 <0>         0.0395
     22 H6         -0.3545    1.8961   -1.1920 H         1 <0>         0.0276
     23 H7          0.0176    0.2320   -1.6014 H         1 <0>         0.0276
     24 H8          0.7217   -1.7601   -0.3977 H         1 <0>         0.1506
     25 H9          4.8506   -1.5686    0.0218 H         1 <0>         0.1506
     26 H10        -0.9010   -0.5064    0.6175 H         1 <0>         0.0266
     27 H11        -1.2309    1.1681    1.0184 H         1 <0>         0.0266
     28 H12        -2.8331    1.2893   -0.9110 H         1 <0>         0.0270
     29 H13        -2.5048   -0.3990   -1.2672 H         1 <0>         0.0270
     30 H14        -3.7546    0.6926    1.3096 H         1 <0>         0.0377
     31 H15        -3.3528   -1.0230    1.0281 H         1 <0>         0.0377
     32 H16        -6.7950   -0.8143    0.3268 H         1 <0>         0.2951
@<TRIPOS>BOND
     1    1    9 1
     2    1   10 1
     3    2   13 2
     4    3   16 1
     5    3   32 1
     6    4   16 2
     7    5    7 1
     8    5   13 am
     9    5   24 1
    10    6    8 1
    11    6   13 am
    12    6   25 1
    13    7    8 1
    14    7    9 1
    15    7   17 1
    16    8   10 1
    17    8   18 1
    18    9   11 1
    19    9   19 1
    20   10   20 1
    21   10   21 1
    22   11   12 1
    23   11   22 1
    24   11   23 1
    25   12   14 1
    26   12   26 1
    27   12   27 1
    28   14   15 1
    29   14   28 1
    30   14   29 1
    31   15   16 1
    32   15   30 1
    33   15   31 1
