@<TRIPOS>MOLECULE
DB00418
   35    35     0     0     0
SMALL
USER_CHARGES

@<TRIPOS>ATOM
      1 O1         -2.3812   -0.2863   -1.7452 O.2       1 <0>        -0.2742
      2 O2         -0.3825    0.6632    2.3965 O.2       1 <0>        -0.2742
      3 O3         -2.1744    4.0186   -0.1701 O.2       1 <0>        -0.2520
      4 N1         -2.1889    1.8752   -1.0013 N.am      1 <0>        -0.2390
      5 N2         -1.1900    2.3497    1.0673 N.am      1 <0>        -0.2390
      6 C1         -0.8332    0.1353    0.0731 C.3       1 <0>         0.1293
      7 C2          0.5384    0.2515   -0.6156 C.3       1 <0>        -0.0212
      8 C3          1.7024   -0.1194    0.3218 C.3       1 <0>        -0.0493
      9 C4         -1.0577   -1.3183    0.5147 C.3       1 <0>        -0.0123
     10 C5          0.5705   -0.6445   -1.8564 C.3       1 <0>        -0.0610
     11 C6         -1.8862    0.5224   -0.9605 C.2       1 <0>         0.2360
     12 C7         -0.7950    1.0408    1.3001 C.2       1 <0>         0.2360
     13 C8          3.0810    0.0515   -0.3207 C.3       1 <0>        -0.0556
     14 C9         -2.4372   -1.5005    1.0547 C.2       1 <0>        -0.0897
     15 C10        -1.8577    2.8338   -0.0512 C.2       1 <0>         0.3122
     16 C11         4.1953   -0.2584    0.6677 C.3       1 <0>        -0.0653
     17 C12        -3.3376   -2.3349    0.5233 C.2       1 <0>        -0.1026
     18 H1          0.6918    1.2868   -0.9512 H         1 <0>         0.0313
     19 H2          1.6190   -1.1572    0.6623 H         1 <0>         0.0268
     20 H3          1.6947    0.5152    1.2127 H         1 <0>         0.0268
     21 H4         -0.3666   -1.6207    1.3097 H         1 <0>         0.0322
     22 H5         -0.9165   -2.0317   -0.3030 H         1 <0>         0.0322
     23 H6          1.4681   -0.4220   -2.4461 H         1 <0>         0.0233
     24 H7         -0.2429   -0.4743   -2.5620 H         1 <0>         0.0233
     25 H8          0.6256   -1.7114   -1.6224 H         1 <0>         0.0233
     26 H9          3.1983    1.0773   -0.6883 H         1 <0>         0.0263
     27 H10         3.1994   -0.6214   -1.1755 H         1 <0>         0.0263
     28 H11        -2.7820    2.1849   -1.7663 H         1 <0>         0.1591
     29 H12        -1.0467    3.0091    1.8272 H         1 <0>         0.1591
     30 H13        -2.7190   -0.9417    1.9433 H         1 <0>         0.0567
     31 H14         4.1536    0.4139    1.5305 H         1 <0>         0.0230
     32 H15         4.1233   -1.2887    1.0304 H         1 <0>         0.0230
     33 H16         5.1717   -0.1345    0.1888 H         1 <0>         0.0230
     34 H17        -4.3224   -2.4334    0.9671 H         1 <0>         0.0532
     35 H18        -3.1153   -2.9299   -0.3555 H         1 <0>         0.0532
@<TRIPOS>BOND
     1    1   11 2
     2    2   12 2
     3    3   15 2
     4    4   11 am
     5    4   15 am
     6    4   28 1
     7    5   12 am
     8    5   15 am
     9    5   29 1
    10    6    7 1
    11    6    9 1
    12    6   11 1
    13    6   12 1
    14    7    8 1
    15    7   10 1
    16    7   18 1
    17    8   13 1
    18    8   19 1
    19    8   20 1
    20    9   14 1
    21    9   21 1
    22    9   22 1
    23   10   23 1
    24   10   24 1
    25   10   25 1
    26   13   16 1
    27   13   26 1
    28   13   27 1
    29   14   17 2
    30   14   30 1
    31   16   31 1
    32   16   32 1
    33   16   33 1
    34   17   34 1
    35   17   35 1
