@<TRIPOS>MOLECULE
DB00590
   58    62     0     0     0
SMALL
USER_CHARGES

@<TRIPOS>ATOM
      1 O1         -5.8613   -0.7963    0.3724 O.3       1 <0>        -0.4725
      2 O2         -5.8364    1.6246   -1.1954 O.3       1 <0>        -0.4841
      3 O3         -4.4099   -2.5415   -0.8557 O.2       1 <0>        -0.2714
      4 O4          6.3770    2.7489   -0.3753 O.3       1 <0>        -0.4914
      5 O5          7.8465    0.5632    0.5105 O.3       1 <0>        -0.4914
      6 N1         -2.4747   -1.3075   -0.4922 N.am      1 <0>        -0.2954
      7 N2          0.3957   -1.1215   -0.1691 N.pl3     1 <0>        -0.2966
      8 N3          2.3817    0.1611   -0.2362 N.ar      1 <0>        -0.2141
      9 N4          2.4289   -2.1454    0.4598 N.ar      1 <0>        -0.1992
     10 N5          4.4525   -3.1692    1.0867 N.pl3     1 <0>        -0.3425
     11 C1         -1.8209   -0.0451   -0.1398 C.3       1 <0>         0.0306
     12 C2         -1.5944   -2.4379   -0.7755 C.3       1 <0>         0.0306
     13 C3         -0.3768    0.0323   -0.6361 C.3       1 <0>         0.0307
     14 C4         -0.3128   -2.3850    0.0532 C.3       1 <0>         0.0307
     15 C5         -3.8579   -1.4794   -0.5591 C.2       1 <0>         0.2598
     16 C6         -4.6873   -0.2775   -0.2512 C.3       1 <0>         0.2092
     17 C7          1.7726   -1.0350    0.0238 C.ar      1 <0>         0.2201
     18 C8         -5.0482    0.4752   -1.5176 C.3       1 <0>         0.1352
     19 C9         -6.8548    0.1459    0.4441 C.ar      1 <0>         0.1632
     20 C10         3.7107    0.2518   -0.0526 C.ar      1 <0>         0.0816
     21 C11        -6.8369    1.3243   -0.3075 C.ar      1 <0>         0.1621
     22 C12         4.4655   -0.8450    0.3946 C.ar      1 <0>         0.0437
     23 C13         3.7581   -2.0200    0.6332 C.ar      1 <0>         0.1291
     24 C14         4.3836    1.4455   -0.3022 C.ar      1 <0>         0.0099
     25 C15        -7.9194   -0.1170    1.3064 C.ar      1 <0>        -0.0163
     26 C16         5.8545   -0.7383    0.5831 C.ar      1 <0>        -0.0038
     27 C17        -7.8616    2.2597   -0.1641 C.ar      1 <0>        -0.0163
     28 C18         5.7647    1.5594   -0.1172 C.ar      1 <0>         0.1635
     29 C19         6.5012    0.4665    0.3258 C.ar      1 <0>         0.1623
     30 C20        -8.9506    0.8132    1.4386 C.ar      1 <0>        -0.0581
     31 C21        -8.9190    2.0021    0.7087 C.ar      1 <0>        -0.0581
     32 C22         6.4873    3.6800    0.6818 C.3       1 <0>         0.0790
     33 C23         8.6897    0.2575   -0.5819 C.3       1 <0>         0.0790
     34 H1         -1.8488    0.0303    0.9541 H         1 <0>         0.0480
     35 H2         -2.3762    0.8026   -0.5489 H         1 <0>         0.0480
     36 H3         -1.3606   -2.3972   -1.8465 H         1 <0>         0.0480
     37 H4         -2.1213   -3.3804   -0.5923 H         1 <0>         0.0480
     38 H5         -0.3529    0.0571   -1.7322 H         1 <0>         0.0480
     39 H6          0.0479    0.9750   -0.2719 H         1 <0>         0.0480
     40 H7         -0.5458   -2.4812    1.1205 H         1 <0>         0.0480
     41 H8          0.3045   -3.2437   -0.2362 H         1 <0>         0.0480
     42 H9         -4.2098    0.3713    0.4904 H         1 <0>         0.0867
     43 H10        -4.1554    0.8224   -2.0472 H         1 <0>         0.0739
     44 H11        -5.6180   -0.1508   -2.2175 H         1 <0>         0.0739
     45 H12         3.8231    2.3117   -0.6507 H         1 <0>         0.0677
     46 H13        -7.9475   -1.0363    1.8851 H         1 <0>         0.0655
     47 H14         6.4534   -1.5730    0.9373 H         1 <0>         0.0663
     48 H15        -7.8496    3.1841   -0.7350 H         1 <0>         0.0655
     49 H16        -9.7774    0.6138    2.1143 H         1 <0>         0.0619
     50 H17        -9.7214    2.7260    0.8171 H         1 <0>         0.0619
     51 H18         3.8792   -3.9850    1.2689 H         1 <0>         0.1437
     52 H19         5.3820   -3.3447    0.7266 H         1 <0>         0.1437
     53 H20         7.0045    4.5687    0.3096 H         1 <0>         0.0660
     54 H21         7.0692    3.2622    1.5096 H         1 <0>         0.0660
     55 H22         5.4968    3.9799    1.0387 H         1 <0>         0.0660
     56 H23         8.4943    0.9289   -1.4242 H         1 <0>         0.0660
     57 H24         8.5538   -0.7822   -0.8967 H         1 <0>         0.0660
     58 H25         9.7285    0.3910   -0.2671 H         1 <0>         0.0660
@<TRIPOS>BOND
     1    1   16 1
     2    1   19 1
     3    2   18 1
     4    2   21 1
     5    3   15 2
     6    4   28 1
     7    4   32 1
     8    5   29 1
     9    5   33 1
    10    6   11 1
    11    6   12 1
    12    6   15 am
    13    7   13 1
    14    7   14 1
    15    7   17 1
    16    8   17 ar
    17    8   20 ar
    18    9   17 ar
    19    9   23 ar
    20   10   23 1
    21   10   51 1
    22   10   52 1
    23   11   13 1
    24   11   34 1
    25   11   35 1
    26   12   14 1
    27   12   36 1
    28   12   37 1
    29   13   38 1
    30   13   39 1
    31   14   40 1
    32   14   41 1
    33   15   16 1
    34   16   18 1
    35   16   42 1
    36   18   43 1
    37   18   44 1
    38   19   21 ar
    39   19   25 ar
    40   20   22 ar
    41   20   24 ar
    42   21   27 ar
    43   22   23 ar
    44   22   26 ar
    45   24   28 ar
    46   24   45 1
    47   25   30 ar
    48   25   46 1
    49   26   29 ar
    50   26   47 1
    51   27   31 ar
    52   27   48 1
    53   28   29 ar
    54   30   31 ar
    55   30   49 1
    56   31   50 1
    57   32   53 1
    58   32   54 1
    59   32   55 1
    60   33   56 1
    61   33   57 1
    62   33   58 1
