@<TRIPOS>MOLECULE
DB00751
   34    37     0     0     0
SMALL
USER_CHARGES

@<TRIPOS>ATOM
      1 N1          0.4182   -1.1563   -0.2369 N.pl3     1 <0>        -0.1823
      2 N2         -0.7255   -3.1414   -0.1688 N.2       1 <0>        -0.1133
      3 N3          0.8928   -2.7341    1.5022 N.pl3     1 <0>        -0.2513
      4 C1         -0.7168   -0.9064   -1.1179 C.3       1 <0>         0.1360
      5 C2         -1.6621    0.0392   -0.4051 C.ar      1 <0>        -0.0057
      6 C3         -1.1839   -2.3580   -1.3492 C.3       1 <0>         0.1405
      7 C4          1.4766   -0.2384   -0.1157 C.ar      1 <0>         0.0985
      8 C5         -1.2364    1.3731   -0.2350 C.ar      1 <0>        -0.0366
      9 C6          0.0675    1.8380   -0.8385 C.3       1 <0>         0.0010
     10 C7          1.3365    1.1562   -0.3507 C.ar      1 <0>        -0.0065
     11 C8          0.2186   -2.3881    0.3651 C.2       1 <0>         0.3700
     12 C9         -2.8881   -0.3547    0.1508 C.ar      1 <0>        -0.0551
     13 C10        -2.0461    2.2808    0.4656 C.ar      1 <0>        -0.0579
     14 C11         2.7664   -0.7042    0.2323 C.ar      1 <0>        -0.0247
     15 C12         2.4611    2.0023   -0.2057 C.ar      1 <0>        -0.0552
     16 C13        -3.6848    0.5579    0.8450 C.ar      1 <0>        -0.0614
     17 C14        -3.2649    1.8739    1.0023 C.ar      1 <0>        -0.0615
     18 C15         3.8608    0.1502    0.3803 C.ar      1 <0>        -0.0587
     19 C16         3.7064    1.5083    0.1673 C.ar      1 <0>        -0.0613
     20 H1         -0.4292   -0.4948   -2.0937 H         1 <0>         0.0760
     21 H2         -2.2606   -2.4639   -1.5034 H         1 <0>         0.0730
     22 H3         -0.6869   -2.7780   -2.2333 H         1 <0>         0.0730
     23 H4          0.0145    1.7383   -1.9308 H         1 <0>         0.0363
     24 H5          0.1539    2.9185   -0.6589 H         1 <0>         0.0363
     25 H6         -3.2442   -1.3769    0.0726 H         1 <0>         0.0621
     26 H7         -1.7327    3.3136    0.5959 H         1 <0>         0.0620
     27 H8          2.9561   -1.7672    0.3635 H         1 <0>         0.0650
     28 H9          2.3702    3.0704   -0.3951 H         1 <0>         0.0621
     29 H10        -4.6317    0.2363    1.2693 H         1 <0>         0.0618
     30 H11        -3.8849    2.5825    1.5436 H         1 <0>         0.0618
     31 H12         4.8324   -0.2540    0.6490 H         1 <0>         0.0619
     32 H13         4.5525    2.1801    0.2719 H         1 <0>         0.0618
     33 H14         0.7225   -3.6275    1.9515 H         1 <0>         0.2412
     34 H15         1.4719   -2.0759    2.0105 H         1 <0>         0.2412
@<TRIPOS>BOND
     1    1    4 1
     2    1    7 1
     3    1   11 1
     4    2    6 1
     5    2   11 2
     6    3   11 1
     7    3   33 1
     8    3   34 1
     9    4    5 1
    10    4    6 1
    11    4   20 1
    12    5    8 ar
    13    5   12 ar
    14    6   21 1
    15    6   22 1
    16    7   10 ar
    17    7   14 ar
    18    8    9 1
    19    8   13 ar
    20    9   10 1
    21    9   23 1
    22    9   24 1
    23   10   15 ar
    24   12   16 ar
    25   12   25 1
    26   13   17 ar
    27   13   26 1
    28   14   18 ar
    29   14   27 1
    30   15   19 ar
    31   15   28 1
    32   16   17 ar
    33   16   29 1
    34   17   30 1
    35   18   19 ar
    36   18   31 1
    37   19   32 1
