@<TRIPOS>MOLECULE
DB00336
   20    20     0     0     0
SMALL
USER_CHARGES

@<TRIPOS>ATOM
      1 O1          2.0483   -0.8625    0.0001 O.3       1 <0>        -0.3992
      2 O2          5.5093   -0.3619   -0.0009 O.3       1 <0>        -0.5735
      3 O3          4.3004   -2.1943    0.0005 O.2       1 <0>         0.0446
      4 O4         -3.7042    1.7352   -0.0001 O.2       1 <0>        -0.2513
      5 N1          4.3774   -0.9301   -0.0001 N.pl3     1 <0>         0.1186
      6 N2         -1.3113    0.3744   -0.0000 N.2       1 <0>        -0.1834
      7 N3         -2.5083   -0.2540   -0.0003 N.am      1 <0>        -0.1909
      8 N4         -4.8033   -0.2813    0.0002 N.am      1 <0>        -0.3120
      9 C1          1.0717    0.0624    0.0001 C.2       1 <0>         0.1545
     10 C2          1.5527    1.3298   -0.0000 C.2       1 <0>        -0.0078
     11 C3          3.2121   -0.1613    0.0004 C.2       1 <0>         0.4380
     12 C4          2.9612    1.1912    0.0003 C.2       1 <0>         0.0595
     13 C5         -0.2961   -0.4285   -0.0001 C.2       1 <0>         0.0881
     14 C6         -3.6663    0.5056   -0.0003 C.2       1 <0>         0.3165
     15 H1          0.9857    2.2498   -0.0002 H         1 <0>         0.0658
     16 H2          3.6965    1.9835    0.0003 H         1 <0>         0.0722
     17 H3         -0.4199   -1.5276   -0.0002 H         1 <0>         0.0883
     18 H4         -2.5279   -1.2687   -0.0004 H         1 <0>         0.1788
     19 H5         -5.7295    0.1327    0.0005 H         1 <0>         0.1465
     20 H6         -4.7484   -1.2943    0.0001 H         1 <0>         0.1465
@<TRIPOS>BOND
     1    1    9 1
     2    1   11 1
     3    2    5 1
     4    3    5 2
     5    4   14 2
     6    5   11 1
     7    6    7 1
     8    6   13 2
     9    7   14 am
    10    7   18 1
    11    8   14 am
    12    8   19 1
    13    8   20 1
    14    9   10 2
    15    9   13 1
    16   10   12 1
    17   10   15 1
    18   11   12 2
    19   12   16 1
    20   13   17 1
