@<TRIPOS>MOLECULE
DB00875
   55    58     0     0     0
SMALL
USER_CHARGES

@<TRIPOS>ATOM
      1 S1          5.2676   -0.8145   -1.6265 S.3       1 <0>        -0.0882
      2 F1          0.7683   -5.3675    0.4510 F         1 <0>        -0.1659
      3 F2          0.6813   -4.0156    2.1448 F         1 <0>        -0.1659
      4 F3         -0.5200   -3.6172    0.3765 F         1 <0>        -0.1659
      5 O1         -7.8727   -0.3911    0.9234 O.3       1 <0>        -0.3937
      6 N1         -1.7757    0.9344   -0.7010 N.3       1 <0>        -0.2996
      7 N2         -4.6261    0.9265   -0.2179 N.3       1 <0>        -0.2977
      8 C1         -2.3221    0.6555    0.6328 C.3       1 <0>         0.0117
      9 C2         -2.6788    1.8160   -1.4510 C.3       1 <0>         0.0117
     10 C3         -3.7238    0.0441    0.5320 C.3       1 <0>         0.0118
     11 C4         -4.0799    1.2033   -1.5520 C.3       1 <0>         0.0118
     12 C5         -0.4406    1.5210   -0.6027 C.3       1 <0>         0.0024
     13 C6         -5.9619    0.3415   -0.3149 C.3       1 <0>         0.0222
     14 C7          0.5175    0.5458    0.0800 C.3       1 <0>        -0.0211
     15 C8         -6.5714    0.1628    1.0664 C.3       1 <0>         0.0569
     16 C9          1.8942    1.1228    0.1705 C.2       1 <0>        -0.0745
     17 C10         3.0187    0.3812    0.1444 C.2       1 <0>        -0.0125
     18 C11         2.9156   -1.0798   -0.1162 C.ar      1 <0>        -0.0033
     19 C12         4.3371    1.0634    0.2417 C.ar      1 <0>        -0.0039
     20 C13         3.8992   -1.7117   -0.9007 C.ar      1 <0>         0.0205
     21 C14         5.4206    0.5824   -0.5177 C.ar      1 <0>         0.0205
     22 C15         1.8882   -1.8623    0.4394 C.ar      1 <0>        -0.0413
     23 C16         4.5488    2.1498    1.1090 C.ar      1 <0>        -0.0530
     24 C17         1.8193   -3.2342    0.1916 C.ar      1 <0>         0.0555
     25 C18         3.8169   -3.0900   -1.1492 C.ar      1 <0>        -0.0469
     26 C19         6.6708    1.2129   -0.4309 C.ar      1 <0>        -0.0474
     27 C20         2.7797   -3.8462   -0.6062 C.ar      1 <0>        -0.0490
     28 C21         5.7985    2.7657    1.1930 C.ar      1 <0>        -0.0611
     29 C22         6.8569    2.3010    0.4201 C.ar      1 <0>        -0.0607
     30 C23         0.7126   -4.0428    0.7796 C.3       1 <0>         0.4174
     31 H1         -2.3552    1.5663    1.2459 H         1 <0>         0.0439
     32 H2         -1.7261   -0.0880    1.1695 H         1 <0>         0.0439
     33 H3         -2.2942    1.9634   -2.4675 H         1 <0>         0.0439
     34 H4         -2.7422    2.8058   -0.9786 H         1 <0>         0.0439
     35 H5         -3.6646   -0.9488    0.0656 H         1 <0>         0.0439
     36 H6         -4.0578   -0.0927    1.5646 H         1 <0>         0.0439
     37 H7         -4.7285    1.9139   -2.0786 H         1 <0>         0.0439
     38 H8         -4.0395    0.2872   -2.1569 H         1 <0>         0.0439
     39 H9         -0.4696    2.4748   -0.0582 H         1 <0>         0.0429
     40 H10        -0.0620    1.7388   -1.6105 H         1 <0>         0.0429
     41 H11        -5.9462   -0.6197   -0.8462 H         1 <0>         0.0449
     42 H12        -6.6210    0.9978   -0.8982 H         1 <0>         0.0449
     43 H13         0.1985    0.3613    1.1087 H         1 <0>         0.0320
     44 H14         0.4523   -0.3525   -0.5359 H         1 <0>         0.0320
     45 H15        -6.6657    1.1208    1.5877 H         1 <0>         0.0570
     46 H16        -6.0212   -0.5294    1.7070 H         1 <0>         0.0570
     47 H17         1.9476    2.1999    0.3123 H         1 <0>         0.0579
     48 H18         1.1936   -1.4722    1.1761 H         1 <0>         0.0629
     49 H19         3.7490    2.5278    1.7415 H         1 <0>         0.0624
     50 H20        -7.7788   -1.2561    0.4890 H         1 <0>         0.2095
     51 H21         4.5614   -3.5918   -1.7635 H         1 <0>         0.0629
     52 H22         7.5155    0.8616   -1.0195 H         1 <0>         0.0629
     53 H23         2.7423   -4.9120   -0.8133 H         1 <0>         0.0623
     54 H24         5.9446    3.6060    1.8654 H         1 <0>         0.0618
     55 H25         7.8292    2.7804    0.4844 H         1 <0>         0.0618
@<TRIPOS>BOND
     1    1   20 1
     2    1   21 1
     3    2   30 1
     4    3   30 1
     5    4   30 1
     6    5   15 1
     7    5   50 1
     8    6    8 1
     9    6    9 1
    10    6   12 1
    11    7   10 1
    12    7   11 1
    13    7   13 1
    14    8   10 1
    15    8   31 1
    16    8   32 1
    17    9   11 1
    18    9   33 1
    19    9   34 1
    20   10   35 1
    21   10   36 1
    22   11   37 1
    23   11   38 1
    24   12   14 1
    25   12   39 1
    26   12   40 1
    27   13   15 1
    28   13   41 1
    29   13   42 1
    30   14   16 1
    31   14   43 1
    32   14   44 1
    33   15   45 1
    34   15   46 1
    35   16   17 2
    36   16   47 1
    37   17   18 1
    38   17   19 1
    39   18   20 ar
    40   18   22 ar
    41   19   21 ar
    42   19   23 ar
    43   20   25 ar
    44   21   26 ar
    45   22   24 ar
    46   22   48 1
    47   23   28 ar
    48   23   49 1
    49   24   27 ar
    50   24   30 1
    51   25   27 ar
    52   25   51 1
    53   26   29 ar
    54   26   52 1
    55   27   53 1
    56   28   29 ar
    57   28   54 1
    58   29   55 1
