@<TRIPOS>MOLECULE
DB00794
   30    31     0     0     0
SMALL
USER_CHARGES

@<TRIPOS>ATOM
      1 O1          1.4699    0.2552    2.3027 O.2       1 <0>        -0.2743
      2 O2          1.5332    0.1528   -2.2736 O.2       1 <0>        -0.2743
      3 N1          1.2523   -1.7680    1.2486 N.am      1 <0>        -0.2986
      4 N2          1.3018   -1.8204   -1.1292 N.am      1 <0>        -0.2986
      5 C1          0.6242    0.2665    0.0001 C.3       1 <0>         0.1471
      6 C2          1.0903    1.7386   -0.0326 C.3       1 <0>        -0.0293
      7 C3         -0.9193    0.2762   -0.0094 C.ar      1 <0>        -0.0237
      8 C4          1.1659   -0.3882    1.2988 C.2       1 <0>         0.2336
      9 C5          1.2083   -0.4448   -1.2480 C.2       1 <0>         0.2336
     10 C6          0.8779   -2.5015    0.0671 C.3       1 <0>         0.0780
     11 C7          2.6013    1.8332   -0.0588 C.3       1 <0>        -0.0636
     12 C8         -1.6114    0.3501    1.1925 C.ar      1 <0>        -0.0571
     13 C9         -1.5977    0.2113   -1.2195 C.ar      1 <0>        -0.0571
     14 C10        -3.0062    0.3590    1.1839 C.ar      1 <0>        -0.0615
     15 C11        -2.9925    0.2203   -1.2279 C.ar      1 <0>        -0.0615
     16 C12        -3.6966    0.2943   -0.0261 C.ar      1 <0>        -0.0617
     17 H1          0.7171    2.2860    0.8432 H         1 <0>         0.0280
     18 H2          0.6883    2.2599   -0.9114 H         1 <0>         0.0280
     19 H3          1.3549   -3.4845    0.0987 H         1 <0>         0.0670
     20 H4         -0.2093   -2.6208    0.0473 H         1 <0>         0.0670
     21 H5          1.5537   -2.2742    2.0754 H         1 <0>         0.1502
     22 H6          1.6322   -2.3628   -1.9213 H         1 <0>         0.1502
     23 H7          3.0854    1.3394    0.7872 H         1 <0>         0.0230
     24 H8          3.0508    1.4448   -0.9753 H         1 <0>         0.0230
     25 H9          2.8897    2.8898   -0.0057 H         1 <0>         0.0230
     26 H10        -1.1102    0.4205    2.1518 H         1 <0>         0.0621
     27 H11        -1.0857    0.1694   -2.1748 H         1 <0>         0.0621
     28 H12        -3.5551    0.4209    2.1192 H         1 <0>         0.0618
     29 H13        -3.5307    0.1739   -2.1701 H         1 <0>         0.0618
     30 H14        -4.7826    0.3032   -0.0328 H         1 <0>         0.0618
@<TRIPOS>BOND
     1    1    8 2
     2    2    9 2
     3    3    8 am
     4    3   10 1
     5    3   21 1
     6    4    9 am
     7    4   10 1
     8    4   22 1
     9    5    6 1
    10    5    7 1
    11    5    8 1
    12    5    9 1
    13    6   11 1
    14    6   17 1
    15    6   18 1
    16    7   12 ar
    17    7   13 ar
    18   10   19 1
    19   10   20 1
    20   11   23 1
    21   11   24 1
    22   11   25 1
    23   12   14 ar
    24   12   26 1
    25   13   15 ar
    26   13   27 1
    27   14   16 ar
    28   14   28 1
    29   15   16 ar
    30   15   29 1
    31   16   30 1
