@<TRIPOS>MOLECULE
DB00161
   19    18     0     0     0
SMALL
USER_CHARGES

@<TRIPOS>ATOM
      1 O1         -3.0041    0.6122    0.0845 O.co2     1 <0>        -0.5442
      2 O2         -1.4727    1.9519    1.1212 O.co2     1 <0>        -0.5442
      3 N1         -1.0468   -1.2183   -0.6059 N.4       1 <0>         0.2251
      4 C1          0.6091    0.3413    0.4337 C.3       1 <0>         0.0018
      5 C2         -0.8220   -0.2379    0.4996 C.3       1 <0>         0.0183
      6 C3          1.6769   -0.7584    0.4372 C.3       1 <0>        -0.0572
      7 C4          0.8319    1.2742   -0.7620 C.3       1 <0>        -0.0572
      8 C5         -1.8706    0.8854    0.5701 C.2       1 <0>         0.0896
      9 H1          0.7790    0.9339    1.3430 H         1 <0>         0.0354
     10 H2         -0.9304   -0.8257    1.4196 H         1 <0>         0.0917
     11 H3          1.5141   -1.4589    1.2629 H         1 <0>         0.0234
     12 H4          2.6732   -0.3211    0.5662 H         1 <0>         0.0234
     13 H5          1.6888   -1.3240   -0.5001 H         1 <0>         0.0234
     14 H6          1.8469    1.6869   -0.7351 H         1 <0>         0.0234
     15 H7          0.1439    2.1229   -0.7743 H         1 <0>         0.0234
     16 H8          0.7232    0.7407   -1.7120 H         1 <0>         0.0234
     17 H9         -2.0032   -1.5956   -0.5683 H         1 <0>         0.2001
     18 H10        -0.4085   -2.0223   -0.5485 H         1 <0>         0.2001
     19 H11        -0.9287   -0.7874   -1.5320 H         1 <0>         0.2001
@<TRIPOS>BOND
     1    1    8 2
     2    2    8 1
     3    3    5 1
     4    3   17 1
     5    3   18 1
     6    3   19 1
     7    4    5 1
     8    4    6 1
     9    4    7 1
    10    4    9 1
    11    5    8 1
    12    5   10 1
    13    6   11 1
    14    6   12 1
    15    6   13 1
    16    7   14 1
    17    7   15 1
    18    7   16 1
