@<TRIPOS>MOLECULE
DB00878
   64    65     0     0     0
SMALL
USER_CHARGES

@<TRIPOS>ATOM
      1 Cl1       -11.0928   -2.2127   -1.9792 Cl        1 <0>        -0.0835
      2 Cl2        10.8882    2.3231    2.3549 Cl        1 <0>        -0.0835
      3 N1         -3.2751    1.4479   -0.6717 N.2       1 <0>        -0.1104
      4 N2          3.2858   -1.5523    0.5353 N.2       1 <0>        -0.1104
      5 N3         -5.4704    1.3197   -0.2229 N.2       1 <0>        -0.0033
      6 N4          5.4936   -1.3377    0.1936 N.2       1 <0>        -0.0033
      7 N5         -4.5071    3.4781   -0.3631 N.pl3     1 <0>        -0.2860
      8 N6          4.6034   -3.5311    0.2479 N.pl3     1 <0>        -0.2860
      9 N7         -6.8201    0.1572    1.3668 N.pl3     1 <0>        -0.2432
     10 N8          6.8699   -0.0625   -1.2827 N.pl3     1 <0>        -0.2432
     11 N9         -5.0041    1.2989    2.1200 N.pl3     1 <0>        -0.2883
     12 N10         5.1072   -1.1992   -2.1597 N.pl3     1 <0>        -0.2883
     13 C1         -0.6036    0.3568    0.0234 C.3       1 <0>        -0.0500
     14 C2          0.6155   -0.5293   -0.2429 C.3       1 <0>        -0.0500
     15 C3         -0.8815    1.2891   -1.1594 C.3       1 <0>        -0.0186
     16 C4          0.8689   -1.4893    0.9232 C.3       1 <0>        -0.0186
     17 C5         -2.0564    2.2260   -0.9004 C.3       1 <0>         0.1048
     18 C6          2.0871   -2.3774    0.6941 C.3       1 <0>         0.1048
     19 C7         -4.3597    2.1100   -0.4386 C.2       1 <0>         0.4249
     20 C8          4.4009   -2.1703    0.3259 C.2       1 <0>         0.4249
     21 C9         -5.7385    0.9465    1.0021 C.2       1 <0>         0.3944
     22 C10         5.8039   -0.9054   -1.0014 C.2       1 <0>         0.3944
     23 C11        -7.8386   -0.4074    0.5696 C.ar      1 <0>         0.1001
     24 C12         7.8276    0.5063   -0.4159 C.ar      1 <0>         0.1001
     25 C13        -7.5692   -0.7748   -0.7489 C.ar      1 <0>        -0.0218
     26 C14        -9.1146   -0.5982    1.0998 C.ar      1 <0>        -0.0218
     27 C15         8.2189   -0.1769    0.7356 C.ar      1 <0>        -0.0218
     28 C16         8.3826    1.7517   -0.7103 C.ar      1 <0>        -0.0218
     29 C17        -8.5754   -1.3332   -1.5369 C.ar      1 <0>        -0.0401
     30 C18       -10.1211   -1.1566    0.3118 C.ar      1 <0>        -0.0401
     31 C19         9.1655    0.3848    1.5921 C.ar      1 <0>        -0.0401
     32 C20         9.3293    2.3135    0.1462 C.ar      1 <0>        -0.0401
     33 C21        -9.8513   -1.5242   -1.0065 C.ar      1 <0>         0.0412
     34 C22         9.7207    1.6301    1.2974 C.ar      1 <0>         0.0412
     35 H1         -1.4766   -0.2789    0.2135 H         1 <0>         0.0266
     36 H2         -0.4332    0.9521    0.9287 H         1 <0>         0.0266
     37 H3          1.4916    0.1089   -0.4070 H         1 <0>         0.0266
     38 H4          0.4588   -1.1064   -1.1623 H         1 <0>         0.0266
     39 H5          0.0107    1.8904   -1.3712 H         1 <0>         0.0297
     40 H6         -1.0851    0.6874   -2.0539 H         1 <0>         0.0297
     41 H7          1.0121   -0.9095    1.8436 H         1 <0>         0.0297
     42 H8         -0.0120   -2.1242    1.0758 H         1 <0>         0.0297
     43 H9         -2.1798    2.8772   -1.7741 H         1 <0>         0.0693
     44 H10        -1.8303    2.8518   -0.0284 H         1 <0>         0.0693
     45 H11         2.1965   -3.0450    1.5572 H         1 <0>         0.0693
     46 H12         1.9205   -2.9892   -0.2010 H         1 <0>         0.0693
     47 H13        -5.4118    3.8909   -0.1629 H         1 <0>         0.2548
     48 H14        -3.7321    4.1165   -0.5014 H         1 <0>         0.2548
     49 H15         3.8477   -4.1995    0.3458 H         1 <0>         0.2548
     50 H16         5.5316   -3.9078    0.0878 H         1 <0>         0.2548
     51 H17        -7.0092    0.0837    2.3632 H         1 <0>         0.2648
     52 H18         6.8976    0.3330   -2.2191 H         1 <0>         0.2648
     53 H19        -6.5808   -0.6755   -1.1857 H         1 <0>         0.0652
     54 H20        -9.3379   -0.3152    2.1253 H         1 <0>         0.0652
     55 H21         7.8370   -1.1628    0.9802 H         1 <0>         0.0652
     56 H22         8.0855    2.2950   -1.6037 H         1 <0>         0.0652
     57 H23        -8.3494   -1.6222   -2.5601 H         1 <0>         0.0633
     58 H24       -11.1107   -1.2992    0.7381 H         1 <0>         0.0633
     59 H25         9.4671   -0.1622    2.4818 H         1 <0>         0.0633
     60 H26         9.7532    3.2848   -0.0958 H         1 <0>         0.0633
     61 H27        -4.1770    1.8822    2.0564 H         1 <0>         0.2547
     62 H28        -5.2630    0.9718    3.0445 H         1 <0>         0.2547
     63 H29         4.2866   -1.7949   -2.1555 H         1 <0>         0.2547
     64 H30         5.4029   -0.8344   -3.0587 H         1 <0>         0.2547
@<TRIPOS>BOND
     1    1   33 1
     2    2   34 1
     3    3   17 1
     4    3   19 2
     5    4   18 1
     6    4   20 2
     7    5   19 1
     8    5   21 2
     9    6   20 1
    10    6   22 2
    11    7   19 1
    12    7   47 1
    13    7   48 1
    14    8   20 1
    15    8   49 1
    16    8   50 1
    17    9   21 1
    18    9   23 1
    19    9   51 1
    20   10   22 1
    21   10   24 1
    22   10   52 1
    23   11   21 1
    24   11   61 1
    25   11   62 1
    26   12   22 1
    27   12   63 1
    28   12   64 1
    29   13   14 1
    30   13   15 1
    31   13   35 1
    32   13   36 1
    33   14   16 1
    34   14   37 1
    35   14   38 1
    36   15   17 1
    37   15   39 1
    38   15   40 1
    39   16   18 1
    40   16   41 1
    41   16   42 1
    42   17   43 1
    43   17   44 1
    44   18   45 1
    45   18   46 1
    46   23   25 ar
    47   23   26 ar
    48   24   27 ar
    49   24   28 ar
    50   25   29 ar
    51   25   53 1
    52   26   30 ar
    53   26   54 1
    54   27   31 ar
    55   27   55 1
    56   28   32 ar
    57   28   56 1
    58   29   33 ar
    59   29   57 1
    60   30   33 ar
    61   30   58 1
    62   31   34 ar
    63   31   59 1
    64   32   34 ar
    65   32   60 1
