@<TRIPOS>MOLECULE
DB00984
   64    68     0     0     0
SMALL
USER_CHARGES

@<TRIPOS>ATOM
      1 O1          2.0993    0.1768    0.2737 O.3       1 <0>        -0.4608
      2 O2         -8.6372   -1.3269    0.7125 O.2       1 <0>        -0.2927
      3 O3          3.2581    1.5849    1.6871 O.2       1 <0>        -0.2508
      4 C1         -1.4032    1.1842    0.3729 C.3       1 <0>        -0.0290
      5 C2         -0.3503    0.1237   -0.0045 C.3       1 <0>         0.0081
      6 C3         -2.7639    0.9117   -0.2704 C.3       1 <0>        -0.0339
      7 C4         -3.2797   -0.4746    0.2173 C.3       1 <0>        -0.0314
      8 C5         -0.8263   -1.2321    0.5314 C.3       1 <0>        -0.0437
      9 C6          0.8715    0.7141    0.7258 C.3       1 <0>         0.1087
     10 C7         -0.6954    2.5061    0.0883 C.3       1 <0>        -0.0460
     11 C8         -2.2265   -1.5925    0.0035 C.3       1 <0>        -0.0488
     12 C9         -4.6565   -0.8201   -0.4286 C.3       1 <0>        -0.0160
     13 C10         0.7745    2.2277    0.4519 C.3       1 <0>        -0.0149
     14 C11        -3.7891    1.9994    0.0717 C.3       1 <0>        -0.0460
     15 C12        -0.0649    0.0052   -1.5233 C.3       1 <0>        -0.0559
     16 C13        -5.1286    1.7061   -0.5943 C.3       1 <0>        -0.0308
     17 C14        -5.6445    0.3276   -0.2632 C.2       1 <0>        -0.0629
     18 C15        -5.2082   -2.1387    0.1520 C.3       1 <0>        -0.0392
     19 C16        -6.6712   -2.3605   -0.1885 C.3       1 <0>         0.0104
     20 C17        -6.9234    0.1660    0.1119 C.2       1 <0>        -0.0197
     21 C18        -7.4954   -1.1897    0.2798 C.2       1 <0>         0.1561
     22 C19         3.2349    0.7035    0.8390 C.2       1 <0>         0.3077
     23 C20         4.4521    0.0271    0.2507 C.3       1 <0>         0.0489
     24 C21         5.7496    0.5518    0.8648 C.3       1 <0>        -0.0176
     25 C22         6.9592   -0.1289    0.2787 C.ar      1 <0>        -0.0468
     26 C23         7.4443   -1.2863    0.8702 C.ar      1 <0>        -0.0586
     27 C24         7.5695    0.4115   -0.8440 C.ar      1 <0>        -0.0586
     28 C25         8.5639   -1.9168    0.3276 C.ar      1 <0>        -0.0615
     29 C26         8.6891   -0.2190   -1.3866 C.ar      1 <0>        -0.0615
     30 C27         9.1863   -1.3832   -0.8007 C.ar      1 <0>        -0.0617
     31 H1         -1.5564    1.1511    1.4649 H         1 <0>         0.0310
     32 H2         -2.6569    0.8916   -1.3621 H         1 <0>         0.0307
     33 H3         -3.4350   -0.3986    1.3049 H         1 <0>         0.0309
     34 H4         -0.8658   -1.2088    1.6283 H         1 <0>         0.0272
     35 H5         -0.1164   -2.0248    0.2662 H         1 <0>         0.0272
     36 H6          0.7816    0.5287    1.8056 H         1 <0>         0.0739
     37 H7         -1.1048    3.3275    0.6853 H         1 <0>         0.0269
     38 H8         -0.7811    2.7883   -0.9669 H         1 <0>         0.0269
     39 H9         -2.1682   -1.8431   -1.0621 H         1 <0>         0.0268
     40 H10        -2.5443   -2.5076    0.5160 H         1 <0>         0.0268
     41 H11        -4.5075   -0.9597   -1.5088 H         1 <0>         0.0349
     42 H12         1.4366    2.5536   -0.3584 H         1 <0>         0.0301
     43 H13         1.0490    2.7995    1.3454 H         1 <0>         0.0301
     44 H14        -3.4334    2.9781   -0.2705 H         1 <0>         0.0271
     45 H15        -3.9206    2.0690    1.1592 H         1 <0>         0.0271
     46 H16         0.3180    0.9373   -1.9508 H         1 <0>         0.0236
     47 H17         0.6880   -0.7684   -1.7145 H         1 <0>         0.0236
     48 H18        -0.9519   -0.2681   -2.1007 H         1 <0>         0.0236
     49 H19        -5.0146    1.7792   -1.6837 H         1 <0>         0.0310
     50 H20        -5.8462    2.4825   -0.3029 H         1 <0>         0.0310
     51 H21        -5.0961   -2.1371    1.2447 H         1 <0>         0.0275
     52 H22        -4.6297   -2.9889   -0.2272 H         1 <0>         0.0275
     53 H23        -7.0290   -3.2663    0.3127 H         1 <0>         0.0345
     54 H24        -6.8161   -2.4821   -1.2673 H         1 <0>         0.0345
     55 H25        -7.5998    1.0048    0.2352 H         1 <0>         0.0652
     56 H26         4.4488    0.2036   -0.8312 H         1 <0>         0.0381
     57 H27         4.3615   -1.0508    0.4295 H         1 <0>         0.0381
     58 H28         5.8281    1.6369    0.7151 H         1 <0>         0.0318
     59 H29         5.7380    0.4105    1.9536 H         1 <0>         0.0318
     60 H30         6.9653   -1.7108    1.7480 H         1 <0>         0.0620
     61 H31         7.1888    1.3167   -1.3086 H         1 <0>         0.0620
     62 H32         8.9507   -2.8236    0.7833 H         1 <0>         0.0618
     63 H33         9.1736    0.1960   -2.2657 H         1 <0>         0.0618
     64 H34        10.0579   -1.8743   -1.2235 H         1 <0>         0.0618
@<TRIPOS>BOND
     1    1    9 1
     2    1   22 1
     3    2   21 2
     4    3   22 2
     5    4    5 1
     6    4    6 1
     7    4   10 1
     8    4   31 1
     9    5    8 1
    10    5    9 1
    11    5   15 1
    12    6    7 1
    13    6   14 1
    14    6   32 1
    15    7   11 1
    16    7   12 1
    17    7   33 1
    18    8   11 1
    19    8   34 1
    20    8   35 1
    21    9   13 1
    22    9   36 1
    23   10   13 1
    24   10   37 1
    25   10   38 1
    26   11   39 1
    27   11   40 1
    28   12   17 1
    29   12   18 1
    30   12   41 1
    31   13   42 1
    32   13   43 1
    33   14   16 1
    34   14   44 1
    35   14   45 1
    36   15   46 1
    37   15   47 1
    38   15   48 1
    39   16   17 1
    40   16   49 1
    41   16   50 1
    42   17   20 2
    43   18   19 1
    44   18   51 1
    45   18   52 1
    46   19   21 1
    47   19   53 1
    48   19   54 1
    49   20   21 1
    50   20   55 1
    51   22   23 1
    52   23   24 1
    53   23   56 1
    54   23   57 1
    55   24   25 1
    56   24   58 1
    57   24   59 1
    58   25   26 ar
    59   25   27 ar
    60   26   28 ar
    61   26   60 1
    62   27   29 ar
    63   27   61 1
    64   28   30 ar
    65   28   62 1
    66   29   30 ar
    67   29   63 1
    68   30   64 1
