@<TRIPOS>MOLECULE
DB00118
   49    51     0     0     0
SMALL
USER_CHARGES

@<TRIPOS>ATOM
      1 S1         -1.3900    0.5768    1.5564 S.3       1 <0>        -0.0106
      2 O1          1.4847    1.5031    0.9084 O.3       1 <0>        -0.3433
      3 O2          1.5775    4.1113   -0.6688 O.3       1 <0>        -0.3863
      4 O3          3.0740    2.4216   -2.1822 O.3       1 <0>        -0.3847
      5 O4         -4.1558   -0.3931   -2.3913 O.co2     1 <0>        -0.5482
      6 O5         -6.0577   -0.1240   -1.1556 O.co2     1 <0>        -0.5482
      7 N1          3.2509    0.1673    0.0561 N.pl3     1 <0>        -0.2855
      8 N2          4.8665   -1.3700   -0.0087 N.2       1 <0>        -0.2306
      9 N3          1.3306   -1.2665    0.4548 N.2       1 <0>        -0.2159
     10 N4         -4.2428   -2.8552   -1.0915 N.3       1 <0>        -0.3225
     11 N5          1.9883   -3.6123    0.5988 N.2       1 <0>        -0.2188
     12 N6          4.2608   -4.3259    0.3672 N.pl3     1 <0>        -0.3413
     13 C1          0.4087    2.2422    0.2853 C.3       1 <0>         0.1340
     14 C2          0.9854    2.8522   -0.9885 C.3       1 <0>         0.1158
     15 C3          2.0722    1.8619   -1.3577 C.3       1 <0>         0.1286
     16 C4          2.6123    1.4808    0.0122 C.3       1 <0>         0.1668
     17 C5         -0.7405    1.2811    0.0155 C.3       1 <0>         0.1381
     18 C6         -3.0222    0.1498    0.9084 C.3       1 <0>         0.1114
     19 C7          2.6376   -1.0378    0.2573 C.2       1 <0>         0.1674
     20 C8          4.5893   -0.0861   -0.0989 C.cat     1 <0>         0.1004
     21 C9         -2.9858   -1.2098    0.2155 C.3       1 <0>         0.0127
     22 C10        -1.8699    2.1488    2.3081 C.3       1 <0>         0.0995
     23 C11         3.6559   -1.9766    0.2140 C.2       1 <0>         0.1473
     24 C12        -4.3516   -1.5891   -0.3636 C.3       1 <0>         0.0491
     25 C13         3.2925   -3.3074    0.3945 C.2       1 <0>         0.1472
     26 C14         1.1015   -2.5879    0.6159 C.2       1 <0>         0.1205
     27 C15        -4.9164   -0.6051   -1.4025 C.2       1 <0>         0.0586
     28 H1          0.1243    3.0397    0.9759 H         1 <0>         0.0671
     29 H2          0.2585    3.0177   -1.7889 H         1 <0>         0.0648
     30 H3          1.6395    0.9951   -1.8707 H         1 <0>         0.0665
     31 H4          3.3524    2.2009    0.3832 H         1 <0>         0.0866
     32 H5         -1.5369    1.8152   -0.5126 H         1 <0>         0.0867
     33 H6         -0.4253    0.4421   -0.6108 H         1 <0>         0.0867
     34 H7         -3.3874    0.9406    0.2472 H         1 <0>         0.0840
     35 H8         -3.7063    0.0948    1.7628 H         1 <0>         0.0840
     36 H9          0.8587    4.7118   -0.4071 H         1 <0>         0.2100
     37 H10         3.4137    3.2197   -1.7429 H         1 <0>         0.2101
     38 H11         5.3093    0.7013   -0.2755 H         1 <0>         0.1030
     39 H12        -2.6607   -1.9812    0.9263 H         1 <0>         0.0329
     40 H13        -2.2338   -1.1919   -0.5845 H         1 <0>         0.0329
     41 H14        -2.3224    2.8230    1.5767 H         1 <0>         0.0803
     42 H15        -0.9983    2.6171    2.7702 H         1 <0>         0.0803
     43 H16        -2.5965    1.9455    3.0998 H         1 <0>         0.0803
     44 H17        -5.0712   -1.7143    0.4540 H         1 <0>         0.0521
     45 H18         0.0665   -2.8681    0.7810 H         1 <0>         0.1048
     46 H19        -5.1475   -3.1142   -1.4825 H         1 <0>         0.1188
     47 H20        -3.5992   -2.7582   -1.8758 H         1 <0>         0.1188
     48 H21         3.9718   -5.2854    0.5006 H         1 <0>         0.1438
     49 H22         5.2346   -4.1010    0.2147 H         1 <0>         0.1438
@<TRIPOS>BOND
     1    1   17 1
     2    1   18 1
     3    1   22 1
     4    2   13 1
     5    2   16 1
     6    3   14 1
     7    3   36 1
     8    4   15 1
     9    4   37 1
    10    5   27 2
    11    6   27 1
    12    7   16 1
    13    7   19 1
    14    7   20 2
    15    8   20 1
    16    8   23 2
    17    9   19 2
    18    9   26 1
    19   10   24 1
    20   10   46 1
    21   10   47 1
    22   11   25 1
    23   11   26 2
    24   12   25 1
    25   12   48 1
    26   12   49 1
    27   13   14 1
    28   13   17 1
    29   13   28 1
    30   14   15 1
    31   14   29 1
    32   15   16 1
    33   15   30 1
    34   16   31 1
    35   17   32 1
    36   17   33 1
    37   18   21 1
    38   18   34 1
    39   18   35 1
    40   19   23 1
    41   20   38 1
    42   21   24 1
    43   21   39 1
    44   21   40 1
    45   22   41 1
    46   22   42 1
    47   22   43 1
    48   23   25 2
    49   24   27 1
    50   24   44 1
    51   26   45 1
