@<TRIPOS>MOLECULE
DB00979
   46    47     0     0     0
SMALL
USER_CHARGES

@<TRIPOS>ATOM
      1 O1         -2.6434   -0.6328   -1.5301 O.3       1 <0>        -0.3874
      2 O2          1.2544    0.0852    0.1323 O.3       1 <0>        -0.4629
      3 O3          0.1898   -0.6644   -1.7674 O.2       1 <0>        -0.2501
      4 N1          4.9338    0.0556   -0.1209 N.3       1 <0>        -0.3051
      5 C1         -2.2251   -0.8959   -0.1917 C.3       1 <0>         0.0830
      6 C2         -3.4359   -0.7907    0.7320 C.3       1 <0>        -0.0229
      7 C3         -1.8291   -2.3643   -0.0546 C.3       1 <0>        -0.0229
      8 C4         -4.1913   -2.1019    0.5156 C.3       1 <0>        -0.0503
      9 C5         -3.1631   -3.1073   -0.0048 C.3       1 <0>        -0.0503
     10 C6         -1.1085    0.0690    0.1744 C.3       1 <0>         0.1100
     11 C7         -1.5242    1.5283    0.0307 C.ar      1 <0>        -0.0310
     12 C8          0.1592   -0.2287   -0.6237 C.2       1 <0>         0.3174
     13 C9         -2.1903    2.1357    1.0742 C.ar      1 <0>        -0.0577
     14 C10        -1.2211    2.1939   -1.1381 C.ar      1 <0>        -0.0577
     15 C11         2.5220   -0.1258   -0.4981 C.3       1 <0>         0.1051
     16 C12        -2.5712    3.4712    0.9425 C.ar      1 <0>        -0.0615
     17 C13        -1.6018    3.5294   -1.2697 C.ar      1 <0>        -0.0615
     18 C14        -2.2769    4.1679   -0.2295 C.ar      1 <0>        -0.0617
     19 C15         3.6227    0.2704    0.4730 C.3       1 <0>         0.0326
     20 C16         5.9948    0.4532    0.8075 C.3       1 <0>        -0.0129
     21 C17         5.1026   -1.3465   -0.5107 C.3       1 <0>        -0.0129
     22 H1         -4.0905    0.0556    0.5003 H         1 <0>         0.0293
     23 H2         -3.1316   -0.7289    1.7838 H         1 <0>         0.0293
     24 H3         -1.2804   -2.5398    0.8788 H         1 <0>         0.0293
     25 H4         -1.2262   -2.7348   -0.8894 H         1 <0>         0.0293
     26 H5         -4.6587   -2.4454    1.4442 H         1 <0>         0.0266
     27 H6         -4.9920   -1.9704   -0.2213 H         1 <0>         0.0266
     28 H7         -3.4505   -3.4523   -1.0049 H         1 <0>         0.0266
     29 H8         -3.0999   -3.9917    0.6375 H         1 <0>         0.0266
     30 H9         -0.8409   -0.1079    1.2278 H         1 <0>         0.0491
     31 H10        -3.3566   -1.2446   -1.7745 H         1 <0>         0.2102
     32 H11        -2.4128    1.6096    1.9969 H         1 <0>         0.0621
     33 H12        -0.7154    1.7275   -1.9759 H         1 <0>         0.0621
     34 H13         2.5676   -1.1868   -0.7614 H         1 <0>         0.0710
     35 H14         2.5774    0.4805   -1.4105 H         1 <0>         0.0710
     36 H15        -3.0942    3.9694    1.7536 H         1 <0>         0.0618
     37 H16        -1.3767    4.0712   -2.1837 H         1 <0>         0.0618
     38 H17        -2.5737    5.2076   -0.3321 H         1 <0>         0.0618
     39 H18         3.5024   -0.2872    1.4118 H         1 <0>         0.0460
     40 H19         3.4907    1.3289    0.7326 H         1 <0>         0.0460
     41 H20         6.9786    0.3501    0.3361 H         1 <0>         0.0391
     42 H21         5.8894    1.5088    1.0821 H         1 <0>         0.0391
     43 H22         5.9861   -0.1453    1.7258 H         1 <0>         0.0391
     44 H23         6.1424   -1.5377   -0.8035 H         1 <0>         0.0391
     45 H24         4.8550   -2.0404    0.3009 H         1 <0>         0.0391
     46 H25         4.5132   -1.5975   -1.3978 H         1 <0>         0.0391
@<TRIPOS>BOND
     1    1    5 1
     2    1   31 1
     3    2   12 1
     4    2   15 1
     5    3   12 2
     6    4   19 1
     7    4   20 1
     8    4   21 1
     9    5    6 1
    10    5    7 1
    11    5   10 1
    12    6    8 1
    13    6   22 1
    14    6   23 1
    15    7    9 1
    16    7   24 1
    17    7   25 1
    18    8    9 1
    19    8   26 1
    20    8   27 1
    21    9   28 1
    22    9   29 1
    23   10   11 1
    24   10   12 1
    25   10   30 1
    26   11   13 ar
    27   11   14 ar
    28   13   16 ar
    29   13   32 1
    30   14   17 ar
    31   14   33 1
    32   15   19 1
    33   15   34 1
    34   15   35 1
    35   16   18 ar
    36   16   36 1
    37   17   18 ar
    38   17   37 1
    39   18   38 1
    40   19   39 1
    41   19   40 1
    42   20   41 1
    43   20   42 1
    44   20   43 1
    45   21   44 1
    46   21   45 1
    47   21   46 1
