@<TRIPOS>MOLECULE
DB00193
   44    45     0     0     0
SMALL
USER_CHARGES

@<TRIPOS>ATOM
      1 O1         -0.9959    1.4362    1.8731 O.3       1 <0>        -0.3836
      2 O2          3.7858   -0.0782   -1.5680 O.3       1 <0>        -0.4951
      3 N1         -2.0758   -2.2692    0.0239 N.3       1 <0>        -0.3080
      4 C1         -1.3411    0.0729   -0.0851 C.3       1 <0>         0.0048
      5 C2         -0.4624    1.1885    0.5620 C.3       1 <0>         0.0950
      6 C3         -2.7986    0.5422   -0.2694 C.3       1 <0>        -0.0461
      7 C4         -0.5954    2.5080   -0.2395 C.3       1 <0>        -0.0195
      8 C5         -2.8855    1.8465   -1.0550 C.3       1 <0>        -0.0526
      9 C6         -2.0498    2.9457   -0.4127 C.3       1 <0>        -0.0501
     10 C7         -1.3434   -1.2311    0.7268 C.3       1 <0>         0.0041
     11 C8          1.0123    0.7778    0.6515 C.ar      1 <0>        -0.0124
     12 C9          1.7338    0.5339   -0.5135 C.ar      1 <0>        -0.0141
     13 C10         1.6205    0.6523    1.8971 C.ar      1 <0>        -0.0556
     14 C11        -2.0813   -3.5166    0.7945 C.3       1 <0>        -0.0130
     15 C12        -1.5037   -2.5025   -1.3056 C.3       1 <0>        -0.0130
     16 C13         3.0754    0.1608   -0.4320 C.ar      1 <0>         0.1204
     17 C14         2.9620    0.2795    1.9785 C.ar      1 <0>        -0.0580
     18 C15         3.6896    0.0339    0.8141 C.ar      1 <0>        -0.0199
     19 C16         5.1531   -0.4548   -1.4118 C.3       1 <0>         0.0788
     20 H1         -0.9201   -0.0950   -1.0823 H         1 <0>         0.0344
     21 H2         -3.2785    0.6797    0.7081 H         1 <0>         0.0269
     22 H3         -3.3918   -0.2077   -0.8046 H         1 <0>         0.0269
     23 H4         -0.1485    2.4109   -1.2364 H         1 <0>         0.0296
     24 H5         -0.0529    3.3147    0.2707 H         1 <0>         0.0296
     25 H6         -3.9309    2.1693   -1.1177 H         1 <0>         0.0265
     26 H7         -2.5418    1.6775   -2.0831 H         1 <0>         0.0265
     27 H8         -2.0884    3.8470   -1.0352 H         1 <0>         0.0266
     28 H9         -2.4783    3.2157    0.5600 H         1 <0>         0.0266
     29 H10        -1.8079   -1.0519    1.7048 H         1 <0>         0.0430
     30 H11        -0.3157   -1.5619    0.9209 H         1 <0>         0.0430
     31 H12        -0.6235    2.2720    2.2029 H         1 <0>         0.2106
     32 H13         1.2720    0.6225   -1.4929 H         1 <0>         0.0658
     33 H14         1.0877    0.8288    2.8262 H         1 <0>         0.0621
     34 H15        -2.5298   -3.3564    1.7814 H         1 <0>         0.0391
     35 H16        -1.0718   -3.9198    0.9348 H         1 <0>         0.0391
     36 H17        -2.6918   -4.2763    0.2940 H         1 <0>         0.0391
     37 H18        -1.7602   -1.7088   -2.0136 H         1 <0>         0.0391
     38 H19        -1.9307   -3.4112   -1.7485 H         1 <0>         0.0391
     39 H20        -0.4155   -2.6320   -1.2779 H         1 <0>         0.0391
     40 H21         3.4393    0.1791    2.9491 H         1 <0>         0.0619
     41 H22         4.7269   -0.2522    0.9501 H         1 <0>         0.0654
     42 H23         5.5637   -0.6052   -2.4156 H         1 <0>         0.0660
     43 H24         5.2499   -1.4079   -0.8807 H         1 <0>         0.0660
     44 H25         5.7392    0.3430   -0.9430 H         1 <0>         0.0660
@<TRIPOS>BOND
     1    1    5 1
     2    1   31 1
     3    2   16 1
     4    2   19 1
     5    3   10 1
     6    3   14 1
     7    3   15 1
     8    4    5 1
     9    4    6 1
    10    4   10 1
    11    4   20 1
    12    5    7 1
    13    5   11 1
    14    6    8 1
    15    6   21 1
    16    6   22 1
    17    7    9 1
    18    7   23 1
    19    7   24 1
    20    8    9 1
    21    8   25 1
    22    8   26 1
    23    9   27 1
    24    9   28 1
    25   10   29 1
    26   10   30 1
    27   11   12 ar
    28   11   13 ar
    29   12   16 ar
    30   12   32 1
    31   13   17 ar
    32   13   33 1
    33   14   34 1
    34   14   35 1
    35   14   36 1
    36   15   37 1
    37   15   38 1
    38   15   39 1
    39   16   18 ar
    40   17   18 ar
    41   17   40 1
    42   18   41 1
    43   19   42 1
    44   19   43 1
    45   19   44 1
