@<TRIPOS>MOLECULE
DB00501
   33    33     0     0     0
SMALL
USER_CHARGES

@<TRIPOS>ATOM
      1 S1         -0.7647   -0.7972    0.3007 S.3       1 <0>        -0.1514
      2 N1         -5.1134    0.5048    1.0030 N.pl3     1 <0>        -0.3482
      3 N2          2.2653   -0.1070   -0.2947 N.pl3     1 <0>        -0.2742
      4 N3         -4.0935   -1.4634    1.1381 N.2       1 <0>        -0.2398
      5 N4          3.7942    1.6917    0.1817 N.pl3     1 <0>        -0.1777
      6 N5          4.4597   -0.6027    0.3811 N.2       1 <0>        -0.1160
      7 N6          1.9626    3.3031   -0.3773 N.1       1 <0>        -0.1538
      8 C1         -3.4942   -0.6682    0.2099 C.2       1 <0>         0.0715
      9 C2         -2.3133   -1.1820   -0.5467 C.3       1 <0>         0.0378
     10 C3          0.3803   -1.5587   -0.8904 C.3       1 <0>         0.0247
     11 C4          1.8310   -1.4786   -0.4317 C.3       1 <0>         0.0737
     12 C5         -4.0918    0.5497    0.0966 C.cat     1 <0>         0.0362
     13 C6         -3.8305    1.7299   -0.7418 C.3       1 <0>        -0.0227
     14 C7         -5.0745   -0.7226    1.6040 C.cat     1 <0>         0.0939
     15 C8          3.5401    0.2691    0.0995 C.2       1 <0>         0.3948
     16 C9          5.7806   -0.1525    0.7900 C.3       1 <0>         0.0940
     17 C10         2.8086    2.5519   -0.1191 C.1       1 <0>         0.2551
     18 H1         -2.4007   -2.2683   -0.6578 H         1 <0>         0.0441
     19 H2         -2.2949   -0.7444   -1.5506 H         1 <0>         0.0441
     20 H3          0.2648   -1.0515   -1.8545 H         1 <0>         0.0407
     21 H4          0.1037   -2.6101   -1.0205 H         1 <0>         0.0407
     22 H5          2.4616   -1.9850   -1.1718 H         1 <0>         0.0663
     23 H6          1.9555   -2.0082    0.5204 H         1 <0>         0.0663
     24 H7         -5.7785    1.2418    1.1966 H         1 <0>         0.1665
     25 H8          1.5676    0.6018   -0.4983 H         1 <0>         0.2579
     26 H9         -3.9901    1.4914   -1.7982 H         1 <0>         0.0292
     27 H10        -4.4866    2.5675   -0.4834 H         1 <0>         0.0292
     28 H11        -2.7959    2.0667   -0.6208 H         1 <0>         0.0292
     29 H12        -5.7839   -1.0115    2.3664 H         1 <0>         0.1027
     30 H13         4.7131    2.0121    0.4664 H         1 <0>         0.2780
     31 H14         6.2690    0.4313    0.0031 H         1 <0>         0.0656
     32 H15         6.4095   -1.0276    0.9819 H         1 <0>         0.0656
     33 H16         5.7395    0.4267    1.7182 H         1 <0>         0.0656
@<TRIPOS>BOND
     1    1    9 1
     2    1   10 1
     3    2   12 1
     4    2   14 2
     5    2   24 1
     6    3   11 1
     7    3   15 1
     8    3   25 1
     9    4    8 2
    10    4   14 1
    11    5   15 1
    12    5   17 1
    13    5   30 1
    14    6   15 2
    15    6   16 1
    16    7   17 3
    17    8    9 1
    18    8   12 1
    19    9   18 1
    20    9   19 1
    21   10   11 1
    22   10   20 1
    23   10   21 1
    24   11   22 1
    25   11   23 1
    26   12   13 1
    27   13   26 1
    28   13   27 1
    29   13   28 1
    30   14   29 1
    31   16   31 1
    32   16   32 1
    33   16   33 1
