@<TRIPOS>MOLECULE
DB00476
   40    42     0     0     0
SMALL
USER_CHARGES

@<TRIPOS>ATOM
      1 S1         -0.7614   -1.9610    1.8581 S.3       1 <0>        -0.0979
      2 O1          0.3741    0.1574   -0.9130 O.3       1 <0>        -0.4831
      3 N1         -4.3149    1.3280   -0.5327 N.3       1 <0>        -0.3188
      4 C1         -0.7409    0.0483   -0.0329 C.3       1 <0>         0.1323
      5 C2         -1.9469    0.7205   -0.7014 C.3       1 <0>         0.0015
      6 C3         -3.2059    0.6870    0.1655 C.3       1 <0>        -0.0007
      7 C4         -0.9492   -1.4201    0.2612 C.2       1 <0>         0.0299
      8 C5          1.4472    0.8739   -0.4650 C.ar      1 <0>         0.1291
      9 C6          2.7150    0.2847   -0.3313 C.ar      1 <0>         0.0238
     10 C7          3.7961    1.0681    0.1380 C.ar      1 <0>        -0.0144
     11 C8         -1.2788   -2.3989   -0.6199 C.2       1 <0>        -0.0480
     12 C9          1.2481    2.2161   -0.1402 C.ar      1 <0>        -0.0193
     13 C10         2.9336   -1.0648   -0.6532 C.ar      1 <0>        -0.0505
     14 C11         3.5776    2.4177    0.4598 C.ar      1 <0>        -0.0538
     15 C12         2.3112    2.9866    0.3210 C.ar      1 <0>        -0.0577
     16 C13         5.0640    0.4791    0.2715 C.ar      1 <0>        -0.0539
     17 C14        -1.3858   -3.6597    0.0349 C.2       1 <0>        -0.0544
     18 C15        -1.1294   -3.5650    1.3850 C.2       1 <0>        -0.0240
     19 C16        -5.5323    1.2688    0.2634 C.3       1 <0>        -0.0158
     20 C17         4.2000   -1.6336   -0.5141 C.ar      1 <0>        -0.0611
     21 C18         5.2631   -0.8631   -0.0526 C.ar      1 <0>        -0.0612
     22 H1         -0.5474    0.5779    0.9116 H         1 <0>         0.0790
     23 H2         -2.1461    0.2391   -1.6689 H         1 <0>         0.0317
     24 H3         -1.6981    1.7602   -0.9477 H         1 <0>         0.0317
     25 H4         -3.0065    1.2080    1.1095 H         1 <0>         0.0425
     26 H5         -3.4737   -0.3490    0.4012 H         1 <0>         0.0425
     27 H6         -1.4374   -2.2462   -1.6796 H         1 <0>         0.0627
     28 H7         -4.4735    0.8612   -1.4252 H         1 <0>         0.1216
     29 H8          0.2761    2.6866   -0.2505 H         1 <0>         0.0654
     30 H9          2.1257   -1.6951   -1.0180 H         1 <0>         0.0625
     31 H10         4.3943    3.0389    0.8215 H         1 <0>         0.0624
     32 H11         2.1566    4.0323    0.5708 H         1 <0>         0.0619
     33 H12         5.9094    1.0624    0.6303 H         1 <0>         0.0624
     34 H13        -1.6374   -4.5891   -0.4594 H         1 <0>         0.0623
     35 H14        -1.1403   -4.3610    2.1161 H         1 <0>         0.0693
     36 H15        -6.3444    1.7667   -0.2756 H         1 <0>         0.0388
     37 H16        -5.4068    1.7870    1.2197 H         1 <0>         0.0388
     38 H17        -5.8396    0.2352    0.4534 H         1 <0>         0.0388
     39 H18         4.3558   -2.6784   -0.7666 H         1 <0>         0.0618
     40 H19         6.2487   -1.3066    0.0553 H         1 <0>         0.0618
@<TRIPOS>BOND
     1    1    7 1
     2    1   18 1
     3    2    4 1
     4    2    8 1
     5    3    6 1
     6    3   19 1
     7    3   28 1
     8    4    5 1
     9    4    7 1
    10    4   22 1
    11    5    6 1
    12    5   23 1
    13    5   24 1
    14    6   25 1
    15    6   26 1
    16    7   11 2
    17    8    9 ar
    18    8   12 ar
    19    9   10 ar
    20    9   13 ar
    21   10   14 ar
    22   10   16 ar
    23   11   17 1
    24   11   27 1
    25   12   15 ar
    26   12   29 1
    27   13   20 ar
    28   13   30 1
    29   14   15 ar
    30   14   31 1
    31   15   32 1
    32   16   21 ar
    33   16   33 1
    34   17   18 2
    35   17   34 1
    36   18   35 1
    37   19   36 1
    38   19   37 1
    39   19   38 1
    40   20   21 ar
    41   20   39 1
    42   21   40 1
