@<TRIPOS>MOLECULE
DB00315
   42    44     0     0     0
SMALL
USER_CHARGES

@<TRIPOS>ATOM
      1 O1         -5.1216    2.4428   -0.6010 O.3       1 <0>        -0.4485
      2 O2         -3.7225    3.4538   -2.1092 O.2       1 <0>        -0.2265
      3 N1         -3.0793    1.5691   -0.9056 N.am      1 <0>        -0.2747
      4 N2          0.8901   -3.6691   -0.5774 N.pl3     1 <0>        -0.3604
      5 N3          4.0806    1.2077   -0.0201 N.3       1 <0>        -0.3080
      6 C1         -3.7386    0.6363   -0.0470 C.3       1 <0>         0.0644
      7 C2         -2.8663    0.1511    1.0939 C.3       1 <0>        -0.0059
      8 C3         -1.9120   -0.9136    0.6644 C.2       1 <0>        -0.0448
      9 C4          0.2522   -1.5633   -0.2090 C.2       1 <0>         0.0031
     10 C5          1.5795   -1.5641   -0.7218 C.2       1 <0>        -0.0211
     11 C6         -4.9465    1.4305    0.4055 C.3       1 <0>         0.1127
     12 C7         -0.1568   -2.8961   -0.1282 C.2       1 <0>         0.0467
     13 C8         -0.6435   -0.5534    0.1951 C.2       1 <0>        -0.0491
     14 C9          2.4227   -0.3798   -0.9810 C.3       1 <0>        -0.0129
     15 C10        -2.2931   -2.2521    0.7342 C.2       1 <0>        -0.0565
     16 C11         3.2747    0.0195    0.2391 C.3       1 <0>         0.0024
     17 C12         1.9440   -2.8731   -0.9382 C.2       1 <0>         0.0059
     18 C13        -1.4217   -3.2711    0.3386 C.2       1 <0>        -0.0375
     19 C14        -3.9395    2.5758   -1.2861 C.2       1 <0>         0.4007
     20 C15         4.8410    1.5839    1.1726 C.3       1 <0>        -0.0130
     21 C16         3.2333    2.3195   -0.4543 C.3       1 <0>        -0.0130
     22 H1         -4.0698   -0.1946   -0.6829 H         1 <0>         0.0536
     23 H2         -3.4990   -0.2525    1.8960 H         1 <0>         0.0332
     24 H3         -2.3155    0.9849    1.5499 H         1 <0>         0.0332
     25 H4         -5.8470    0.8120    0.4663 H         1 <0>         0.0717
     26 H5         -4.7972    1.9349    1.3666 H         1 <0>         0.0717
     27 H6         -0.3473    0.4909    0.1457 H         1 <0>         0.0627
     28 H7          3.0819   -0.5752   -1.8373 H         1 <0>         0.0326
     29 H8          1.7528    0.4304   -1.2888 H         1 <0>         0.0326
     30 H9         -2.1696    1.4210   -1.3311 H         1 <0>         0.1524
     31 H10        -3.2818   -2.5238    1.0975 H         1 <0>         0.0621
     32 H11         3.9354   -0.8196    0.4938 H         1 <0>         0.0429
     33 H12         2.6170    0.1755    1.1058 H         1 <0>         0.0429
     34 H13         2.8575   -3.3109   -1.3162 H         1 <0>         0.0810
     35 H14        -1.7194   -4.3129    0.3926 H         1 <0>         0.0638
     36 H15         0.8812   -4.6782   -0.6322 H         1 <0>         0.1653
     37 H16         5.4934    0.7621    1.4881 H         1 <0>         0.0391
     38 H17         4.1892    1.8495    2.0128 H         1 <0>         0.0391
     39 H18         5.4949    2.4370    0.9597 H         1 <0>         0.0391
     40 H19         3.8125    3.2507   -0.4852 H         1 <0>         0.0391
     41 H20         2.3796    2.4836    0.2134 H         1 <0>         0.0391
     42 H21         2.8746    2.1809   -1.4789 H         1 <0>         0.0391
@<TRIPOS>BOND
     1    1   11 1
     2    1   19 1
     3    2   19 2
     4    3    6 1
     5    3   19 am
     6    3   30 1
     7    4   12 1
     8    4   17 2
     9    4   36 1
    10    5   16 1
    11    5   20 1
    12    5   21 1
    13    6    7 1
    14    6   11 1
    15    6   22 1
    16    7    8 1
    17    7   23 1
    18    7   24 1
    19    8   13 1
    20    8   15 2
    21    9   10 2
    22    9   12 1
    23    9   13 2
    24   10   14 1
    25   10   17 1
    26   11   25 1
    27   11   26 1
    28   12   18 2
    29   13   27 1
    30   14   16 1
    31   14   28 1
    32   14   29 1
    33   15   18 1
    34   15   31 1
    35   16   32 1
    36   16   33 1
    37   17   34 1
    38   18   35 1
    39   20   37 1
    40   20   38 1
    41   20   39 1
    42   21   40 1
    43   21   41 1
    44   21   42 1
