@<TRIPOS>MOLECULE
DB00330
   38    37     0     0     0
SMALL
USER_CHARGES

@<TRIPOS>ATOM
      1 O1          5.4379   -0.7455    0.2770 O.3       1 <0>        -0.3935
      2 O2         -5.4363   -0.7441   -0.2853 O.3       1 <0>        -0.3935
      3 N1          1.7674   -0.6383    0.5850 N.3       1 <0>        -0.3099
      4 N2         -1.7713   -0.6382   -0.5798 N.3       1 <0>        -0.3099
      5 C1          3.0537   -0.6318   -0.1120 C.3       1 <0>         0.0305
      6 C2         -3.0532   -0.6320    0.1103 C.3       1 <0>         0.0305
      7 C3          0.6669   -0.6447   -0.3658 C.3       1 <0>         0.0088
      8 C4         -0.6675   -0.6497    0.3740 C.3       1 <0>         0.0088
      9 C5          3.1892    0.6068   -1.0176 C.3       1 <0>        -0.0383
     10 C6         -3.1905    0.6055    1.0172 C.3       1 <0>        -0.0383
     11 C7          4.1758   -0.6827    0.9303 C.3       1 <0>         0.0595
     12 C8         -4.1725   -0.6809   -0.9350 C.3       1 <0>         0.0595
     13 C9          3.1111    1.9282   -0.2625 C.3       1 <0>        -0.0638
     14 C10        -3.1098    1.9279    0.2641 C.3       1 <0>        -0.0638
     15 H1          3.1386   -1.5231   -0.7482 H         1 <0>         0.0483
     16 H2         -3.1424   -1.5233    0.7460 H         1 <0>         0.0483
     17 H3          0.7314   -1.5241   -1.0191 H         1 <0>         0.0437
     18 H4          0.6643    0.2496   -0.9959 H         1 <0>         0.0437
     19 H5         -0.6681    0.2393    1.0116 H         1 <0>         0.0437
     20 H6         -0.7316   -1.5351    1.0190 H         1 <0>         0.0437
     21 H7          1.7067   -1.4583    1.1880 H         1 <0>         0.1223
     22 H8         -1.7076   -1.4547   -1.1872 H         1 <0>         0.1223
     23 H9          4.1629    0.5693   -1.5239 H         1 <0>         0.0278
     24 H10         2.4634    0.6001   -1.8370 H         1 <0>         0.0278
     25 H11        -2.4679    0.5978    1.8394 H         1 <0>         0.0278
     26 H12        -4.1658    0.5679    1.5202 H         1 <0>         0.0278
     27 H13         4.0845   -1.5780    1.5562 H         1 <0>         0.0573
     28 H14         4.1746    0.1810    1.6019 H         1 <0>         0.0573
     29 H15        -4.0804   -1.5754   -1.5619 H         1 <0>         0.0573
     30 H16        -4.1693    0.1836   -1.6055 H         1 <0>         0.0573
     31 H17         2.1735    2.0308    0.2915 H         1 <0>         0.0230
     32 H18         3.1628    2.7590   -0.9746 H         1 <0>         0.0230
     33 H19         3.9455    2.0530    0.4331 H         1 <0>         0.0230
     34 H20        -2.1702    2.0312   -0.2864 H         1 <0>         0.0230
     35 H21        -3.1640    2.7578    0.9769 H         1 <0>         0.0230
     36 H22        -3.9416    2.0537   -0.4344 H         1 <0>         0.0230
     37 H23         5.4405   -1.5415   -0.2814 H         1 <0>         0.2095
     38 H24        -5.4408   -1.5411    0.2718 H         1 <0>         0.2095
@<TRIPOS>BOND
     1    1   11 1
     2    1   37 1
     3    2   12 1
     4    2   38 1
     5    3    5 1
     6    3    7 1
     7    3   21 1
     8    4    6 1
     9    4    8 1
    10    4   22 1
    11    5    9 1
    12    5   11 1
    13    5   15 1
    14    6   10 1
    15    6   12 1
    16    6   16 1
    17    7    8 1
    18    7   17 1
    19    7   18 1
    20    8   19 1
    21    8   20 1
    22    9   13 1
    23    9   23 1
    24    9   24 1
    25   10   14 1
    26   10   25 1
    27   10   26 1
    28   11   27 1
    29   11   28 1
    30   12   29 1
    31   12   30 1
    32   13   31 1
    33   13   32 1
    34   13   33 1
    35   14   34 1
    36   14   35 1
    37   14   36 1
