@<TRIPOS>MOLECULE
DB00140
   47    49     0     0     0
SMALL
USER_CHARGES

@<TRIPOS>ATOM
      1 O1         -2.0237   -1.4440    0.5767 O.3       1 <0>        -0.3874
      2 O2         -2.8995    1.3632   -1.6171 O.3       1 <0>        -0.3865
      3 O3         -5.3497    1.0544   -0.3385 O.3       1 <0>        -0.3869
      4 O4         -4.6318    1.9214    2.2220 O.3       1 <0>        -0.3924
      5 O5          3.3856   -4.5396    1.0610 O.2       1 <0>        -0.2653
      6 O6         -0.7672   -5.6012   -0.5967 O.2       1 <0>        -0.2446
      7 N1          0.4723   -1.1083   -0.7017 N.pl3     1 <0>        -0.3195
      8 N2          2.9054   -1.9492    0.4813 N.2       1 <0>        -0.2368
      9 N3         -0.1676   -3.4063   -0.6510 N.2       1 <0>        -0.1733
     10 N4          1.2863   -5.0983    0.2261 N.am      1 <0>        -0.2717
     11 C1         -1.7887   -0.2834   -0.2218 C.3       1 <0>         0.1014
     12 C2         -0.7707   -0.6388   -1.3118 C.3       1 <0>         0.0538
     13 C3         -3.1278    0.2156   -0.8004 C.3       1 <0>         0.1106
     14 C4         -4.1553    0.5816    0.2876 C.3       1 <0>         0.1065
     15 C5          1.4693   -0.1538   -0.4024 C.ar      1 <0>         0.0694
     16 C6          0.6839   -2.4519   -0.4161 C.cat     1 <0>         0.1705
     17 C7          2.6715   -0.5970    0.1859 C.ar      1 <0>         0.0886
     18 C8          1.3309    1.2231   -0.6595 C.ar      1 <0>        -0.0329
     19 C9          1.9976   -2.8301    0.2113 C.2       1 <0>         0.1712
     20 C10        -3.6407    1.6676    1.2314 C.3       1 <0>         0.0726
     21 C11         2.3481    2.1281   -0.3449 C.ar      1 <0>        -0.0455
     22 C12         3.6869    0.3201    0.4978 C.ar      1 <0>        -0.0311
     23 C13         3.5267    1.6768    0.2339 C.ar      1 <0>        -0.0454
     24 C14         2.3164   -4.2488    0.5531 C.2       1 <0>         0.2817
     25 C15         2.1446    3.5783   -0.6406 C.3       1 <0>        -0.0394
     26 C16         4.6285    2.6222    0.5814 C.3       1 <0>        -0.0394
     27 C17         0.0727   -4.7311   -0.3561 C.2       1 <0>         0.3505
     28 H1         -1.3475    0.4869    0.4184 H         1 <0>         0.0638
     29 H2         -1.1893   -1.4527   -1.9197 H         1 <0>         0.0519
     30 H3         -0.6164    0.1700   -2.0327 H         1 <0>         0.0519
     31 H4         -3.5651   -0.5573   -1.4446 H         1 <0>         0.0646
     32 H5         -4.4310   -0.3119    0.8593 H         1 <0>         0.0643
     33 H6          0.4215    1.6279   -1.0928 H         1 <0>         0.0641
     34 H7         -2.7265    1.3817    1.7558 H         1 <0>         0.0584
     35 H8         -3.4695    2.6096    0.7017 H         1 <0>         0.0584
     36 H9          4.6072   -0.0426    0.9516 H         1 <0>         0.0642
     37 H10        -1.2215   -1.6040    1.1016 H         1 <0>         0.2100
     38 H11        -3.7614    1.6508   -1.9638 H         1 <0>         0.2100
     39 H12        -5.9776    1.2833    0.3682 H         1 <0>         0.2100
     40 H13         1.1668    3.7692   -1.0966 H         1 <0>         0.0278
     41 H14         2.1910    4.1694    0.2799 H         1 <0>         0.0278
     42 H15         2.9029    3.9385   -1.3433 H         1 <0>         0.0278
     43 H16         5.4837    2.1028    1.0278 H         1 <0>         0.0278
     44 H17         4.9946    3.1344   -0.3143 H         1 <0>         0.0278
     45 H18         4.2855    3.3635    1.3104 H         1 <0>         0.0278
     46 H19         1.4193   -6.0856    0.4260 H         1 <0>         0.1735
     47 H20        -4.7705    1.0953    2.7160 H         1 <0>         0.2095
@<TRIPOS>BOND
     1    1   11 1
     2    1   37 1
     3    2   13 1
     4    2   38 1
     5    3   14 1
     6    3   39 1
     7    4   20 1
     8    4   47 1
     9    5   24 2
    10    6   27 2
    11    7   12 1
    12    7   15 1
    13    7   16 1
    14    8   17 1
    15    8   19 2
    16    9   16 1
    17    9   27 1
    18   10   24 am
    19   10   27 am
    20   10   46 1
    21   11   12 1
    22   11   13 1
    23   11   28 1
    24   12   29 1
    25   12   30 1
    26   13   14 1
    27   13   31 1
    28   14   20 1
    29   14   32 1
    30   15   17 ar
    31   15   18 ar
    32   16   19 1
    33   17   22 ar
    34   18   21 ar
    35   18   33 1
    36   19   24 1
    37   20   34 1
    38   20   35 1
    39   21   23 ar
    40   21   25 1
    41   22   23 ar
    42   22   36 1
    43   23   26 1
    44   25   40 1
    45   25   41 1
    46   25   42 1
    47   26   43 1
    48   26   44 1
    49   26   45 1
