@<TRIPOS>MOLECULE
DB00890
   38    39     0     0     0
SMALL
USER_CHARGES

@<TRIPOS>ATOM
      1 O1          3.8810    3.2093    0.8063 O.3       1 <0>        -0.5068
      2 O2         -3.8808    3.2095   -0.8061 O.3       1 <0>        -0.5068
      3 C1          0.7077   -1.3011   -0.1945 C.2       1 <0>        -0.0147
      4 C2         -0.7079   -1.3011    0.1945 C.2       1 <0>        -0.0147
      5 C3          1.5463   -0.1080    0.0701 C.ar      1 <0>        -0.0174
      6 C4         -1.5464   -0.1079   -0.0701 C.ar      1 <0>        -0.0174
      7 C5          1.3258   -2.3584   -0.7637 C.2       1 <0>        -0.0788
      8 C6         -1.3256   -2.3587    0.7635 C.2       1 <0>        -0.0788
      9 C7          1.6561    0.8634   -0.9055 C.ar      1 <0>        -0.0506
     10 C8         -1.6563    0.8634    0.9055 C.ar      1 <0>        -0.0506
     11 C9          2.1947   -0.0018    1.2850 C.ar      1 <0>        -0.0506
     12 C10        -2.1949   -0.0016   -1.2850 C.ar      1 <0>        -0.0506
     13 C11         2.4461    1.9858   -0.6564 C.ar      1 <0>        -0.0196
     14 C12        -2.4461    1.9858    0.6564 C.ar      1 <0>        -0.0196
     15 C13         2.9845    1.1206    1.5342 C.ar      1 <0>        -0.0196
     16 C14        -2.9845    1.1209   -1.5341 C.ar      1 <0>        -0.0196
     17 C15         3.1103    2.1144    0.5635 C.ar      1 <0>         0.1169
     18 C16        -3.1103    2.1146   -0.5635 C.ar      1 <0>         0.1169
     19 C17         2.7651   -2.4692   -1.1610 C.3       1 <0>        -0.0459
     20 C18        -2.7651   -2.4695    1.1609 C.3       1 <0>        -0.0459
     21 H1          0.7427   -3.2536   -0.9760 H         1 <0>         0.0575
     22 H2         -0.7424   -3.2539    0.9757 H         1 <0>         0.0575
     23 H3          1.1455    0.7740   -1.8605 H         1 <0>         0.0625
     24 H4         -1.1456    0.7739    1.8605 H         1 <0>         0.0625
     25 H5          2.1036   -0.7691    2.0488 H         1 <0>         0.0625
     26 H6         -2.1038   -0.7689   -2.0489 H         1 <0>         0.0625
     27 H7          2.5360    2.7527   -1.4209 H         1 <0>         0.0654
     28 H8         -2.5359    2.7527    1.4210 H         1 <0>         0.0654
     29 H9          3.4994    1.2152    2.4864 H         1 <0>         0.0654
     30 H10        -3.4992    1.2156   -2.4864 H         1 <0>         0.0654
     31 H11         2.8302   -2.6742   -2.2345 H         1 <0>         0.0272
     32 H12         3.3688   -1.5826   -0.9579 H         1 <0>         0.0272
     33 H13         3.2241   -3.3097   -0.6303 H         1 <0>         0.0272
     34 H14        -3.2241   -3.3098    0.6300 H         1 <0>         0.0272
     35 H15        -2.8300   -2.6748    2.2344 H         1 <0>         0.0272
     36 H16        -3.3687   -1.5829    0.9582 H         1 <0>         0.0272
     37 H17         3.8541    3.7924    0.0282 H         1 <0>         0.2921
     38 H18        -3.8540    3.7925   -0.0279 H         1 <0>         0.2921
@<TRIPOS>BOND
     1    1   17 1
     2    1   37 1
     3    2   18 1
     4    2   38 1
     5    3    4 1
     6    3    5 1
     7    3    7 2
     8    4    6 1
     9    4    8 2
    10    5    9 ar
    11    5   11 ar
    12    6   10 ar
    13    6   12 ar
    14    7   19 1
    15    7   21 1
    16    8   20 1
    17    8   22 1
    18    9   13 ar
    19    9   23 1
    20   10   14 ar
    21   10   24 1
    22   11   15 ar
    23   11   25 1
    24   12   16 ar
    25   12   26 1
    26   13   17 ar
    27   13   27 1
    28   14   18 ar
    29   14   28 1
    30   15   17 ar
    31   15   29 1
    32   16   18 ar
    33   16   30 1
    34   19   31 1
    35   19   32 1
    36   19   33 1
    37   20   34 1
    38   20   35 1
    39   20   36 1
