@<TRIPOS>MOLECULE
DB00465
   32    34     0     0     0
SMALL
USER_CHARGES

@<TRIPOS>ATOM
      1 O1          4.4864   -1.9088    0.2416 O.3       1 <0>        -0.4802
      2 O2          2.8405   -1.7589   -1.3380 O.2       1 <0>        -0.2503
      3 O3         -1.6330    2.5427    0.7193 O.2       1 <0>        -0.2851
      4 N1          1.0182    0.7507    0.1681 N.pl3     1 <0>        -0.3405
      5 C1          3.2726    0.1175    0.0707 C.3       1 <0>         0.0979
      6 C2          2.7889    0.1235    1.5448 C.3       1 <0>        -0.0165
      7 C3          1.2498    0.2093    1.4922 C.3       1 <0>         0.0248
      8 C4          2.1176    0.7063   -0.6374 C.cat     1 <0>         0.0331
      9 C5         -0.0414    1.2986   -0.4596 C.2       1 <0>         0.0899
     10 C6          1.7719    1.2466   -1.8481 C.2       1 <0>        -0.0395
     11 C7          0.3963    1.6213   -1.7349 C.2       1 <0>        -0.0327
     12 C8          3.4942   -1.2736   -0.4271 C.2       1 <0>         0.3137
     13 C9         -1.3362    1.4868    0.1124 C.2       1 <0>         0.2093
     14 C10        -2.4325    0.4536    0.0358 C.ar      1 <0>         0.0237
     15 C11        -2.1656   -0.7204   -0.6150 C.ar      1 <0>        -0.0509
     16 C12        -3.6343    0.7463    0.6218 C.ar      1 <0>        -0.0509
     17 C13        -3.1793   -1.6759   -0.6856 C.ar      1 <0>        -0.0611
     18 C14        -4.6479   -0.2095    0.5510 C.ar      1 <0>        -0.0611
     19 C15        -4.4202   -1.4205   -0.1026 C.ar      1 <0>        -0.0617
     20 H1          4.1843    0.7063   -0.0674 H         1 <0>         0.0478
     21 H2          3.1728    1.0267    2.0379 H         1 <0>         0.0294
     22 H3          3.1237   -0.7351    2.1353 H         1 <0>         0.0294
     23 H4          0.7783   -0.7768    1.5350 H         1 <0>         0.0492
     24 H5          0.8356    0.8834    2.2454 H         1 <0>         0.0492
     25 H6          2.4126    1.3654   -2.7101 H         1 <0>         0.0636
     26 H7         -0.2054    2.0808   -2.5076 H         1 <0>         0.0640
     27 H8          4.6262   -2.8212   -0.0903 H         1 <0>         0.2951
     28 H9         -1.2122   -0.9504   -1.0768 H         1 <0>         0.0625
     29 H10        -3.8359    1.6801    1.1358 H         1 <0>         0.0625
     30 H11        -3.0023   -2.6192   -1.1940 H         1 <0>         0.0618
     31 H12        -5.6145   -0.0111    1.0050 H         1 <0>         0.0618
     32 H13        -5.2094   -2.1646   -0.1574 H         1 <0>         0.0618
@<TRIPOS>BOND
     1    1   12 1
     2    1   27 1
     3    2   12 2
     4    3   13 2
     5    4    7 1
     6    4    8 1
     7    4    9 2
     8    5    6 1
     9    5    8 1
    10    5   12 1
    11    5   20 1
    12    6    7 1
    13    6   21 1
    14    6   22 1
    15    7   23 1
    16    7   24 1
    17    8   10 1
    18    9   11 1
    19    9   13 1
    20   10   11 2
    21   10   25 1
    22   11   26 1
    23   13   14 1
    24   14   15 ar
    25   14   16 ar
    26   15   17 ar
    27   15   28 1
    28   16   18 ar
    29   16   29 1
    30   17   19 ar
    31   17   30 1
    32   18   19 ar
    33   18   31 1
    34   19   32 1
