@<TRIPOS>MOLECULE
DB00999
   25    26     0     0     0
SMALL
USER_CHARGES

@<TRIPOS>ATOM
      1 Cl1        -2.4442   -2.8103   -0.1522 Cl        1 <0>        -0.0815
      2 S1          1.8024    1.7915   -0.2209 S.o2      1 <0>         0.0616
      3 S2         -3.3549    0.2621   -0.5758 S.o2      1 <0>         0.0574
      4 O1          2.1187    2.0537   -1.6109 O.2       1 <0>        -0.1529
      5 O2          1.3017    2.8308    0.6564 O.2       1 <0>        -0.1529
      6 O3         -3.3895    1.5272   -1.2923 O.2       1 <0>        -0.1532
      7 O4         -4.0813   -0.8871   -1.0921 O.2       1 <0>        -0.1532
      8 N1          3.1355    1.0400    0.5388 N.pl3     1 <0>        -0.1728
      9 N2          2.3774   -1.2317    0.1447 N.pl3     1 <0>        -0.3284
     10 N3         -3.8229    0.5288    1.0445 N.pl3     1 <0>        -0.2035
     11 C1          0.6314    0.4697   -0.2204 C.ar      1 <0>         0.1280
     12 C2          1.0561   -0.8565   -0.0437 C.ar      1 <0>         0.0563
     13 C3          3.4739   -0.2970    0.0187 C.3       1 <0>         0.0798
     14 C4         -0.7162    0.8065   -0.3778 C.ar      1 <0>        -0.0057
     15 C5         -1.6782   -0.1983   -0.3612 C.ar      1 <0>         0.1252
     16 C6          0.0595   -1.8456   -0.0210 C.ar      1 <0>        -0.0187
     17 C7         -1.2918   -1.5236   -0.1817 C.ar      1 <0>         0.0691
     18 H1          4.3367   -0.6766    0.5753 H         1 <0>         0.0644
     19 H2          3.7770   -0.2128   -1.0308 H         1 <0>         0.0644
     20 H3         -0.9989    1.8474   -0.5069 H         1 <0>         0.0658
     21 H4          3.2140    1.1408    1.5588 H         1 <0>         0.1498
     22 H5          2.5946   -2.2195    0.2118 H         1 <0>         0.1474
     23 H6          0.3489   -2.8861    0.1237 H         1 <0>         0.0652
     24 H7         -3.9894    1.4986    1.3397 H         1 <0>         0.1442
     25 H8         -4.4603   -0.1519    1.4755 H         1 <0>         0.1442
@<TRIPOS>BOND
     1    1   17 1
     2    2    4 2
     3    2    5 2
     4    2    8 1
     5    2   11 1
     6    3    6 2
     7    3    7 2
     8    3   10 1
     9    3   15 1
    10    8   13 1
    11    8   21 1
    12    9   12 1
    13    9   13 1
    14    9   22 1
    15   10   24 1
    16   10   25 1
    17   11   12 ar
    18   11   14 ar
    19   12   16 ar
    20   13   18 1
    21   13   19 1
    22   14   15 ar
    23   14   20 1
    24   15   17 ar
    25   16   17 ar
    26   16   23 1
