@<TRIPOS>MOLECULE
DB00908
   48    51     0     0     0
SMALL
USER_CHARGES

@<TRIPOS>ATOM
      1 O1         -0.4152   -1.5551    2.5863 O.3       1 <0>        -0.3856
      2 O2          3.5538    2.3423    0.2999 O.3       1 <0>        -0.4951
      3 N1         -1.3529   -0.6897   -0.9284 N.3       1 <0>        -0.2960
      4 N2          3.0487   -3.0960   -0.5565 N.ar      1 <0>        -0.2550
      5 C1         -3.5449    0.2364    0.1212 C.3       1 <0>        -0.0310
      6 C2         -1.4989   -1.1873    0.4659 C.3       1 <0>         0.0408
      7 C3         -2.7083   -0.5287    1.1658 C.3       1 <0>        -0.0312
      8 C4         -2.6896    1.3854   -0.4631 C.3       1 <0>        -0.0075
      9 C5         -3.8467   -0.7374   -1.0330 C.3       1 <0>        -0.0367
     10 C6         -1.3446    0.7940   -0.9484 C.3       1 <0>         0.0058
     11 C7         -2.5274   -1.1544   -1.7049 C.3       1 <0>        -0.0004
     12 C8         -0.2134   -1.0249    1.2799 C.3       1 <0>         0.0963
     13 C9         -2.4869    2.5122    0.5046 C.2       1 <0>        -0.0865
     14 C10         0.9554   -1.7218    0.6296 C.ar      1 <0>        -0.0070
     15 C11        -2.9002    3.7659    0.2908 C.2       1 <0>        -0.1023
     16 C12         2.1110   -1.0321    0.2610 C.ar      1 <0>         0.0095
     17 C13         0.8375   -3.0815    0.4125 C.ar      1 <0>        -0.0373
     18 C14         3.1517   -1.7711   -0.3395 C.ar      1 <0>         0.0715
     19 C15         2.2525    0.3498    0.4729 C.ar      1 <0>        -0.0104
     20 C16         1.9079   -3.7187   -0.1814 C.ar      1 <0>         0.0286
     21 C17         4.3087   -1.0909   -0.7100 C.ar      1 <0>        -0.0323
     22 C18         3.4206    1.0046    0.0928 C.ar      1 <0>         0.1208
     23 C19         4.4497    0.2830   -0.4996 C.ar      1 <0>        -0.0179
     24 C20         4.7789    2.9456   -0.1151 C.3       1 <0>         0.0788
     25 H1         -4.4747    0.6088    0.5655 H         1 <0>         0.0308
     26 H2         -1.7334   -2.2604    0.4195 H         1 <0>         0.0491
     27 H3         -2.4028    0.1420    1.9758 H         1 <0>         0.0284
     28 H4         -3.3287   -1.3081    1.6268 H         1 <0>         0.0284
     29 H5         -3.2205    1.7745   -1.3444 H         1 <0>         0.0358
     30 H6         -4.5062   -0.2637   -1.7694 H         1 <0>         0.0280
     31 H7         -4.3700   -1.6214   -0.6489 H         1 <0>         0.0280
     32 H8         -1.1570    1.1296   -1.9775 H         1 <0>         0.0432
     33 H9         -0.4965    1.1837   -0.3772 H         1 <0>         0.0432
     34 H10        -2.4935   -2.2452   -1.8171 H         1 <0>         0.0427
     35 H11        -2.4796   -0.7542   -2.7257 H         1 <0>         0.0427
     36 H12        -0.0562    0.0359    1.4554 H         1 <0>         0.0659
     37 H13        -1.9540    2.3065    1.4292 H         1 <0>         0.0570
     38 H14         0.4455   -1.5837    3.0382 H         1 <0>         0.2103
     39 H15        -2.7129    4.5390    1.0279 H         1 <0>         0.0532
     40 H16        -3.4287    4.0440   -0.6143 H         1 <0>         0.0532
     41 H17        -0.0352   -3.6547    0.7026 H         1 <0>         0.0636
     42 H18         1.4959    0.9702    0.9361 H         1 <0>         0.0661
     43 H19         1.8819   -4.7860   -0.3757 H         1 <0>         0.0830
     44 H20         5.1289   -1.6347   -1.1756 H         1 <0>         0.0640
     45 H21         5.3878    0.7218   -0.8223 H         1 <0>         0.0655
     46 H22         5.6331    2.5446    0.4410 H         1 <0>         0.0660
     47 H23         4.7120    4.0116    0.1255 H         1 <0>         0.0660
     48 H24         4.9173    2.8700   -1.1990 H         1 <0>         0.0660
@<TRIPOS>BOND
     1    1   12 1
     2    1   38 1
     3    2   22 1
     4    2   24 1
     5    3    6 1
     6    3   10 1
     7    3   11 1
     8    4   18 ar
     9    4   20 ar
    10    5    7 1
    11    5    8 1
    12    5    9 1
    13    5   25 1
    14    6    7 1
    15    6   12 1
    16    6   26 1
    17    7   27 1
    18    7   28 1
    19    8   10 1
    20    8   13 1
    21    8   29 1
    22    9   11 1
    23    9   30 1
    24    9   31 1
    25   10   32 1
    26   10   33 1
    27   11   34 1
    28   11   35 1
    29   12   14 1
    30   12   36 1
    31   13   15 2
    32   13   37 1
    33   14   16 ar
    34   14   17 ar
    35   15   39 1
    36   15   40 1
    37   16   18 ar
    38   16   19 ar
    39   17   20 ar
    40   17   41 1
    41   18   21 ar
    42   19   22 ar
    43   19   42 1
    44   20   43 1
    45   21   23 ar
    46   21   44 1
    47   22   23 ar
    48   23   45 1
    49   24   46 1
    50   24   47 1
    51   24   48 1
