@<TRIPOS>MOLECULE
DB00687
   56    59     0     0     0
SMALL
USER_CHARGES

@<TRIPOS>ATOM
      1 F1         -1.2604   -0.0526    1.6554 F         1 <0>        -0.2380
      2 O1          3.0983   -0.0635    2.0632 O.3       1 <0>        -0.3804
      3 O2         -0.4501   -2.1348   -1.1610 O.3       1 <0>        -0.3886
      4 O3          4.1747   -1.9740   -0.0501 O.2       1 <0>        -0.2919
      5 O4          6.7033   -1.0411    0.5050 O.3       1 <0>        -0.3874
      6 O5         -6.4765    0.2438    1.5634 O.2       1 <0>        -0.2927
      7 C1          1.8093   -0.3279   -0.0138 C.3       1 <0>         0.0093
      8 C2          0.9978    0.9515    0.2880 C.3       1 <0>        -0.0266
      9 C3         -0.4213    0.9294   -0.3004 C.3       1 <0>        -0.0000
     10 C4         -1.2012   -0.2881    0.2895 C.3       1 <0>         0.1492
     11 C5          3.1590    0.0658    0.6456 C.3       1 <0>         0.1315
     12 C6          1.0595   -1.5115    0.6297 C.3       1 <0>        -0.0151
     13 C7         -2.7071   -0.3415   -0.1966 C.3       1 <0>         0.0263
     14 C8         -0.4097   -1.6236    0.1622 C.3       1 <0>         0.0907
     15 C9          1.9463    2.0760   -0.1198 C.3       1 <0>        -0.0462
     16 C10         3.3440    1.5545    0.2736 C.3       1 <0>        -0.0162
     17 C11        -1.1528    2.2415    0.0269 C.3       1 <0>        -0.0432
     18 C12         2.0236   -0.5736   -1.5332 C.3       1 <0>        -0.0562
     19 C13        -3.3570    1.0306    0.0341 C.2       1 <0>        -0.0572
     20 C14        -2.5901    2.2283   -0.4725 C.3       1 <0>        -0.0304
     21 C15        -3.4545   -1.4304    0.6289 C.3       1 <0>        -0.0339
     22 C16        -2.8614   -0.6652   -1.7013 C.3       1 <0>        -0.0528
     23 C17         4.3234   -0.7891    0.2448 C.2       1 <0>         0.1902
     24 C18        -4.9688   -1.3183    0.5524 C.3       1 <0>         0.0107
     25 C19        -4.5570    1.2086    0.6114 C.2       1 <0>        -0.0194
     26 C20        -5.4085    0.0557    0.9846 C.2       1 <0>         0.1561
     27 C21         5.6773   -0.1119    0.2263 C.3       1 <0>         0.1052
     28 H1          0.8794    1.0400    1.3804 H         1 <0>         0.0311
     29 H2         -0.3674    0.8442   -1.3899 H         1 <0>         0.0335
     30 H3          1.0361   -1.3993    1.7201 H         1 <0>         0.0297
     31 H4          1.5888   -2.4479    0.4183 H         1 <0>         0.0297
     32 H5         -0.8854   -2.3734    0.8050 H         1 <0>         0.0625
     33 H6          1.7170    3.0148    0.3949 H         1 <0>         0.0269
     34 H7          1.8980    2.2684   -1.1976 H         1 <0>         0.0269
     35 H8          4.0130    1.7152   -0.5780 H         1 <0>         0.0297
     36 H9          3.7292    2.1334    1.1211 H         1 <0>         0.0297
     37 H10        -0.6310    3.0879   -0.4348 H         1 <0>         0.0272
     38 H11        -1.1442    2.4195    1.1102 H         1 <0>         0.0272
     39 H12         2.4079   -1.5809   -1.7249 H         1 <0>         0.0236
     40 H13         1.1030   -0.4814   -2.1131 H         1 <0>         0.0236
     41 H14         2.7341    0.1317   -1.9771 H         1 <0>         0.0236
     42 H15        -2.5961    2.2170   -1.5694 H         1 <0>         0.0310
     43 H16        -3.0740    3.1664   -0.1744 H         1 <0>         0.0310
     44 H17        -3.1678   -1.3576    1.6867 H         1 <0>         0.0279
     45 H18        -3.1594   -2.4339    0.2990 H         1 <0>         0.0279
     46 H19        -3.8724   -0.4362   -2.0603 H         1 <0>         0.0239
     47 H20        -2.1680   -0.0919   -2.3240 H         1 <0>         0.0239
     48 H21        -2.6986   -1.7267   -1.9107 H         1 <0>         0.0239
     49 H22         3.0320   -1.0071    2.2873 H         1 <0>         0.2108
     50 H23        -5.4186   -2.0559    1.2261 H         1 <0>         0.0345
     51 H24        -5.3423   -1.5076   -0.4588 H         1 <0>         0.0345
     52 H25         0.0133   -2.9895   -1.1640 H         1 <0>         0.2099
     53 H26        -4.9785    2.1962    0.7663 H         1 <0>         0.0652
     54 H27         5.7290    0.6528    1.0052 H         1 <0>         0.0637
     55 H28         5.8561    0.3422   -0.7518 H         1 <0>         0.0637
     56 H29         6.7267   -1.6793   -0.2283 H         1 <0>         0.2100
@<TRIPOS>BOND
     1    1   10 1
     2    2   11 1
     3    2   49 1
     4    3   14 1
     5    3   52 1
     6    4   23 2
     7    5   27 1
     8    5   56 1
     9    6   26 2
    10    7    8 1
    11    7   11 1
    12    7   12 1
    13    7   18 1
    14    8    9 1
    15    8   15 1
    16    8   28 1
    17    9   10 1
    18    9   17 1
    19    9   29 1
    20   10   13 1
    21   10   14 1
    22   11   16 1
    23   11   23 1
    24   12   14 1
    25   12   30 1
    26   12   31 1
    27   13   19 1
    28   13   21 1
    29   13   22 1
    30   14   32 1
    31   15   16 1
    32   15   33 1
    33   15   34 1
    34   16   35 1
    35   16   36 1
    36   17   20 1
    37   17   37 1
    38   17   38 1
    39   18   39 1
    40   18   40 1
    41   18   41 1
    42   19   20 1
    43   19   25 2
    44   20   42 1
    45   20   43 1
    46   21   24 1
    47   21   44 1
    48   21   45 1
    49   22   46 1
    50   22   47 1
    51   22   48 1
    52   23   27 1
    53   24   26 1
    54   24   50 1
    55   24   51 1
    56   25   26 1
    57   25   53 1
    58   27   54 1
    59   27   55 1
