@<TRIPOS>MOLECULE
DB00739
   50    53     0     0     0
SMALL
USER_CHARGES

@<TRIPOS>ATOM
      1 S1          1.2947    0.0890   -1.3245 S.3       1 <0>        -0.1273
      2 O1          1.4810   -1.5877    2.7456 O.2       1 <0>        -0.2734
      3 O2         -0.3099    0.3486    1.6077 O.2       1 <0>        -0.2734
      4 O3          4.9278    1.4183    1.4210 O.3       1 <0>        -0.4793
      5 O4          5.0075   -0.8598    1.4409 O.2       1 <0>        -0.2489
      6 N1          2.4774   -1.0767    0.6680 N.am      1 <0>        -0.2708
      7 N2         -0.6479   -1.6052    0.3497 N.am      1 <0>        -0.2679
      8 N3         -2.8172   -1.2285   -0.3046 N.3       1 <0>        -0.2817
      9 C1          1.7668   -1.4971   -0.5432 C.3       1 <0>         0.1008
     10 C2          0.7252   -2.1531    0.3737 C.3       1 <0>         0.1318
     11 C3          2.9924    0.2752    0.7477 C.3       1 <0>         0.1379
     12 C4          2.8152    0.9215   -0.6432 C.3       1 <0>         0.0417
     13 C5          1.5872   -1.6324    1.5409 C.2       1 <0>         0.2405
     14 C6         -1.7733   -2.2636   -0.2785 C.3       1 <0>         0.0844
     15 C7         -1.0209   -0.4185    0.9750 C.2       1 <0>         0.2392
     16 C8         -2.5074   -0.2599    0.7540 C.3       1 <0>         0.1121
     17 C9          3.9721    0.6626   -1.6179 C.3       1 <0>        -0.0484
     18 C10         2.5513    2.4241   -0.5304 C.3       1 <0>        -0.0484
     19 C11         4.4033    0.1823    1.2345 C.2       1 <0>         0.3269
     20 C12        -1.4792   -2.6745   -1.7231 C.3       1 <0>        -0.0302
     21 C13        -2.2434   -3.4701    0.5444 C.3       1 <0>        -0.0302
     22 C14        -2.9116    1.1448    0.3829 C.ar      1 <0>        -0.0216
     23 C15        -3.2446    2.0655    1.3795 C.ar      1 <0>        -0.0566
     24 C16        -2.9544    1.5315   -0.9589 C.ar      1 <0>        -0.0566
     25 C17        -3.6182    3.3649    1.0364 C.ar      1 <0>        -0.0614
     26 C18        -3.3280    2.8310   -1.3019 C.ar      1 <0>        -0.0614
     27 C19        -3.6600    3.7476   -0.3041 C.ar      1 <0>        -0.0617
     28 H1          2.3540   -2.1782   -1.1657 H         1 <0>         0.0640
     29 H2          0.7294   -3.2485    0.3273 H         1 <0>         0.0625
     30 H3          2.4112    0.8010    1.5167 H         1 <0>         0.0631
     31 H4         -3.0142   -0.5716    1.6764 H         1 <0>         0.0608
     32 H5         -3.7484   -1.6210   -0.1788 H         1 <0>         0.1249
     33 H6          4.8824    1.1836   -1.3008 H         1 <0>         0.0244
     34 H7          4.2174   -0.4025   -1.6971 H         1 <0>         0.0244
     35 H8          3.7365    1.0278   -2.6247 H         1 <0>         0.0244
     36 H9          2.3322    2.8680   -1.5088 H         1 <0>         0.0244
     37 H10         1.7041    2.6402    0.1309 H         1 <0>         0.0244
     38 H11         3.4229    2.9499   -0.1264 H         1 <0>         0.0244
     39 H12        -1.1582   -1.8193   -2.3289 H         1 <0>         0.0263
     40 H13        -0.6800   -3.4228   -1.7692 H         1 <0>         0.0263
     41 H14        -2.3649   -3.1078   -2.2023 H         1 <0>         0.0263
     42 H15        -3.1448   -3.9213    0.1142 H         1 <0>         0.0263
     43 H16        -1.4706   -4.2459    0.5825 H         1 <0>         0.0263
     44 H17        -2.4685   -3.1900    1.5803 H         1 <0>         0.0263
     45 H18         5.8545    1.3788    1.7399 H         1 <0>         0.2951
     46 H19        -3.2141    1.7802    2.4277 H         1 <0>         0.0621
     47 H20        -2.6851    0.8503   -1.7613 H         1 <0>         0.0621
     48 H21        -3.8759    4.0789    1.8132 H         1 <0>         0.0618
     49 H22        -3.3562    3.1307   -2.3453 H         1 <0>         0.0618
     50 H23        -3.9497    4.7597   -0.5712 H         1 <0>         0.0618
@<TRIPOS>BOND
     1    1    9 1
     2    1   12 1
     3    2   13 2
     4    3   15 2
     5    4   19 1
     6    4   45 1
     7    5   19 2
     8    6    9 1
     9    6   11 1
    10    6   13 am
    11    7   10 1
    12    7   14 1
    13    7   15 am
    14    8   14 1
    15    8   16 1
    16    8   32 1
    17    9   10 1
    18    9   28 1
    19   10   13 1
    20   10   29 1
    21   11   12 1
    22   11   19 1
    23   11   30 1
    24   12   17 1
    25   12   18 1
    26   14   20 1
    27   14   21 1
    28   15   16 1
    29   16   22 1
    30   16   31 1
    31   17   33 1
    32   17   34 1
    33   17   35 1
    34   18   36 1
    35   18   37 1
    36   18   38 1
    37   20   39 1
    38   20   40 1
    39   20   41 1
    40   21   42 1
    41   21   43 1
    42   21   44 1
    43   22   23 ar
    44   22   24 ar
    45   23   25 ar
    46   23   46 1
    47   24   26 ar
    48   24   47 1
    49   25   27 ar
    50   25   48 1
    51   26   27 ar
    52   26   49 1
    53   27   50 1
