@<TRIPOS>MOLECULE
DB00531
   29    29     0     0     0
SMALL
USER_CHARGES

@<TRIPOS>ATOM
      1 Cl1         3.5337    2.6879   -0.3627 Cl        1 <0>        -0.1241
      2 Cl2         3.1281   -3.1675   -0.2268 Cl        1 <0>        -0.1241
      3 P1         -0.5400    0.5023    1.1019 P.3       1 <0>         0.3458
      4 O1         -1.4869   -0.7820    1.4450 O.3       1 <0>        -0.3053
      5 O2          0.0361    1.0719    2.3758 O.2       1 <0>        -0.2542
      6 N1          0.6002   -0.0431    0.0252 N.pl3     1 <0>        -0.2167
      7 N2         -1.5472    1.5410    0.2719 N.pl3     1 <0>        -0.2325
      8 C1         -2.4143    0.9458   -0.7468 C.3       1 <0>         0.0074
      9 C2         -3.2249   -0.2079   -0.1542 C.3       1 <0>        -0.0159
     10 C3         -2.3276   -1.3031    0.4193 C.3       1 <0>         0.0584
     11 C4          1.4481    0.9699   -0.5996 C.3       1 <0>         0.0219
     12 C5          1.4172   -1.1761    0.4549 C.3       1 <0>         0.0219
     13 C6          2.5084    1.4396    0.3843 C.3       1 <0>         0.0358
     14 C7          2.1455   -1.7746   -0.7386 C.3       1 <0>         0.0358
     15 H1         -1.8122    0.5956   -1.5923 H         1 <0>         0.0430
     16 H2         -3.0994    1.7122   -1.1243 H         1 <0>         0.0430
     17 H3         -3.8703    0.1830    0.6425 H         1 <0>         0.0300
     18 H4         -3.8751   -0.6336   -0.9263 H         1 <0>         0.0300
     19 H5         -1.1311    2.3947   -0.0968 H         1 <0>         0.1326
     20 H6         -2.9396   -2.0962    0.8591 H         1 <0>         0.0565
     21 H7         -1.7051   -1.7531   -0.3609 H         1 <0>         0.0565
     22 H8          0.8344    1.8266   -0.9010 H         1 <0>         0.0443
     23 H9          1.8837    0.6277   -1.5436 H         1 <0>         0.0443
     24 H10         0.7471   -1.9516    0.8476 H         1 <0>         0.0443
     25 H11         2.0863   -0.9385    1.2883 H         1 <0>         0.0443
     26 H12         2.0823    1.8935    1.2803 H         1 <0>         0.0442
     27 H13         3.2089    0.6583    0.6826 H         1 <0>         0.0442
     28 H14         1.4469   -2.1245   -1.5053 H         1 <0>         0.0442
     29 H15         2.8663   -1.0981   -1.1995 H         1 <0>         0.0442
@<TRIPOS>BOND
     1    1   13 1
     2    2   14 1
     3    3    4 1
     4    3    5 2
     5    3    6 1
     6    3    7 1
     7    4   10 1
     8    6   11 1
     9    6   12 1
    10    7    8 1
    11    7   19 1
    12    8    9 1
    13    8   15 1
    14    8   16 1
    15    9   10 1
    16    9   17 1
    17    9   18 1
    18   10   20 1
    19   10   21 1
    20   11   13 1
    21   11   22 1
    22   11   23 1
    23   12   14 1
    24   12   24 1
    25   12   25 1
    26   13   26 1
    27   13   27 1
    28   14   28 1
    29   14   29 1
