@<TRIPOS>MOLECULE
DB00271
   29    29     0     0     0
SMALL
USER_CHARGES

@<TRIPOS>ATOM
      1 I1         -0.0146   -2.7921   -0.5771 I         1 <0>        -0.0399
      2 I2          3.0604    2.4712   -0.2267 I         1 <0>        -0.0410
      3 I3         -3.0486    2.4951   -0.2283 I         1 <0>        -0.0410
      4 O1          0.0114    4.0041    1.1346 O.3       1 <0>        -0.4771
      5 O2          0.0125    4.3508   -1.1118 O.2       1 <0>        -0.2451
      6 O3         -2.9100   -1.0805    1.8330 O.2       1 <0>        -0.2758
      7 O4          2.8874   -1.1092    1.8357 O.2       1 <0>        -0.2758
      8 N1         -2.4287   -0.6606   -0.4348 N.am      1 <0>        -0.2840
      9 N2          2.4156   -0.6797   -0.4322 N.am      1 <0>        -0.2840
     10 C1         -1.2117    0.0348   -0.3891 C.ar      1 <0>         0.0625
     11 C2          1.2042    0.0253   -0.3883 C.ar      1 <0>         0.0625
     12 C3         -0.0064   -0.6658   -0.4340 C.ar      1 <0>         0.0578
     13 C4          0.0043    2.1179   -0.2527 C.ar      1 <0>         0.0886
     14 C5          1.2096    1.4172   -0.2975 C.ar      1 <0>         0.0506
     15 C6         -1.2063    1.4268   -0.2986 C.ar      1 <0>         0.0506
     16 C7          0.0101    3.5784   -0.1547 C.2       1 <0>         0.3389
     17 C8         -3.1735   -1.1577    0.6373 C.2       1 <0>         0.2141
     18 C9          3.1550   -1.1829    0.6408 C.2       1 <0>         0.2141
     19 C10        -4.4291   -1.8476    0.1664 C.3       1 <0>         0.0125
     20 C11         4.4057   -1.8829    0.1713 C.3       1 <0>         0.0125
     21 H1         -2.7363   -0.9090   -1.3725 H         1 <0>         0.1549
     22 H2          2.8468   -0.7168   -1.3533 H         1 <0>         0.1549
     23 H3         -4.9996   -1.1831   -0.4886 H         1 <0>         0.0323
     24 H4         -5.0504   -2.1126    1.0262 H         1 <0>         0.0323
     25 H5         -4.1645   -2.7585   -0.3777 H         1 <0>         0.0323
     26 H6          4.1578   -2.6243   -0.5936 H         1 <0>         0.0323
     27 H7          4.8823   -2.3928    1.0132 H         1 <0>         0.0323
     28 H8          5.1019   -1.1487   -0.2434 H         1 <0>         0.0323
     29 H9          0.0147    4.9830    1.1966 H         1 <0>         0.2954
@<TRIPOS>BOND
     1    1   12 1
     2    2   14 1
     3    3   15 1
     4    4   16 1
     5    4   29 1
     6    5   16 2
     7    6   17 2
     8    7   18 2
     9    8   10 1
    10    8   17 am
    11    8   21 1
    12    9   11 1
    13    9   18 am
    14    9   22 1
    15   10   12 ar
    16   10   15 ar
    17   11   12 ar
    18   11   14 ar
    19   13   14 ar
    20   13   15 ar
    21   13   16 1
    22   17   19 1
    23   18   20 1
    24   19   23 1
    25   19   24 1
    26   19   25 1
    27   20   26 1
    28   20   27 1
    29   20   28 1
