@<TRIPOS>MOLECULE
DB00253
   57    60     0     0     0
SMALL
USER_CHARGES

@<TRIPOS>ATOM
      1 O1         -0.2949   -2.1162    1.3818 O.3       1 <0>        -0.3915
      2 O2         -5.4468    0.2664    0.8034 O.2       1 <0>        -0.2974
      3 O3          5.9021   -0.9778   -1.7342 O.2       1 <0>        -0.2927
      4 C1         -1.2850    1.0015   -0.3197 C.3       1 <0>        -0.0317
      5 C2         -2.2728   -0.1052    0.0990 C.3       1 <0>        -0.0172
      6 C3          0.1224    0.8144    0.2642 C.3       1 <0>        -0.0312
      7 C4          0.6949   -0.5473   -0.2389 C.3       1 <0>        -0.0027
      8 C5          2.1925   -0.7910    0.2139 C.3       1 <0>        -0.0046
      9 C6         -1.7353   -1.4418   -0.4416 C.3       1 <0>        -0.0202
     10 C7         -0.2883   -1.7352    0.0129 C.3       1 <0>         0.0596
     11 C8         -3.5407    0.4102   -0.6229 C.3       1 <0>         0.0230
     12 C9         -2.0529    2.2871   -0.0287 C.3       1 <0>        -0.0488
     13 C10         1.0375    1.9705   -0.1653 C.3       1 <0>        -0.0433
     14 C11        -3.5036    1.9386   -0.4103 C.3       1 <0>        -0.0427
     15 C12         2.4727    1.7872    0.3392 C.3       1 <0>        -0.0215
     16 C13         3.0431    0.4503   -0.1377 C.2       1 <0>        -0.0572
     17 C14        -2.5149   -0.1820    1.6289 C.3       1 <0>        -0.0586
     18 C15         2.7137   -2.0448   -0.5498 C.3       1 <0>        -0.0366
     19 C16         2.3476   -1.0378    1.7324 C.3       1 <0>        -0.0555
     20 C17        -4.8184   -0.2061   -0.1425 C.2       1 <0>         0.1339
     21 C18         4.2249   -2.1842   -0.5290 C.3       1 <0>         0.0107
     22 C19         4.2242    0.3629   -0.7779 C.2       1 <0>        -0.0192
     23 C20         3.2879    3.0402   -0.0143 C.3       1 <0>        -0.0587
     24 C21         4.8539   -0.9413   -1.0930 C.2       1 <0>         0.1561
     25 C22        -5.2966   -1.4301   -0.8753 C.3       1 <0>        -0.0058
     26 H1         -1.1718    0.9639   -1.4168 H         1 <0>         0.0309
     27 H2          0.0721    0.8162    1.3579 H         1 <0>         0.0308
     28 H3          0.7314   -0.4506   -1.3374 H         1 <0>         0.0337
     29 H4         -1.7526   -1.4272   -1.5392 H         1 <0>         0.0296
     30 H5         -2.3900   -2.2613   -0.1240 H         1 <0>         0.0296
     31 H6          0.0578   -2.6084   -0.5510 H         1 <0>         0.0596
     32 H7         -3.4654    0.2286   -1.7040 H         1 <0>         0.0383
     33 H8         -1.6826    3.1331   -0.6163 H         1 <0>         0.0268
     34 H9         -1.9876    2.5628    1.0297 H         1 <0>         0.0268
     35 H10         0.6370    2.9126    0.2293 H         1 <0>         0.0274
     36 H11         1.0369    2.0627   -1.2600 H         1 <0>         0.0274
     37 H12        -4.1889    2.3007    0.3629 H         1 <0>         0.0272
     38 H13        -3.7833    2.4470   -1.3409 H         1 <0>         0.0272
     39 H14         2.4431    1.7514    1.4367 H         1 <0>         0.0343
     40 H15        -3.0345    0.7004    2.0163 H         1 <0>         0.0235
     41 H16        -3.1282   -1.0547    1.8814 H         1 <0>         0.0235
     42 H17        -1.5909   -0.2634    2.2045 H         1 <0>         0.0235
     43 H18         2.3933   -1.9942   -1.6001 H         1 <0>         0.0278
     44 H19         2.2739   -2.9604   -0.1364 H         1 <0>         0.0278
     45 H20         1.7633   -0.3323    2.3305 H         1 <0>         0.0238
     46 H21         2.0390   -2.0487    2.0168 H         1 <0>         0.0238
     47 H22         3.3925   -0.9370    2.0508 H         1 <0>         0.0238
     48 H23         4.5177   -3.0374   -1.1508 H         1 <0>         0.0345
     49 H24         4.6088   -2.3502    0.4823 H         1 <0>         0.0345
     50 H25         4.8150    1.2326   -1.0403 H         1 <0>         0.0652
     51 H26         3.3708    3.1762   -1.0983 H         1 <0>         0.0235
     52 H27         2.8120    3.9379    0.3964 H         1 <0>         0.0235
     53 H28         4.2966    2.9900    0.4099 H         1 <0>         0.0235
     54 H29        -0.8767   -2.8900    1.4720 H         1 <0>         0.2098
     55 H30        -5.3874   -1.2115   -1.9422 H         1 <0>         0.0306
     56 H31        -4.6066   -2.2599   -0.7166 H         1 <0>         0.0306
     57 H32        -6.2821   -1.7179   -0.4976 H         1 <0>         0.0306
@<TRIPOS>BOND
     1    1   10 1
     2    1   54 1
     3    2   20 2
     4    3   24 2
     5    4    5 1
     6    4    6 1
     7    4   12 1
     8    4   26 1
     9    5    9 1
    10    5   11 1
    11    5   17 1
    12    6    7 1
    13    6   13 1
    14    6   27 1
    15    7    8 1
    16    7   10 1
    17    7   28 1
    18    8   16 1
    19    8   18 1
    20    8   19 1
    21    9   10 1
    22    9   29 1
    23    9   30 1
    24   10   31 1
    25   11   14 1
    26   11   20 1
    27   11   32 1
    28   12   14 1
    29   12   33 1
    30   12   34 1
    31   13   15 1
    32   13   35 1
    33   13   36 1
    34   14   37 1
    35   14   38 1
    36   15   16 1
    37   15   23 1
    38   15   39 1
    39   16   22 2
    40   17   40 1
    41   17   41 1
    42   17   42 1
    43   18   21 1
    44   18   43 1
    45   18   44 1
    46   19   45 1
    47   19   46 1
    48   19   47 1
    49   20   25 1
    50   21   24 1
    51   21   48 1
    52   21   49 1
    53   22   24 1
    54   22   50 1
    55   23   51 1
    56   23   52 1
    57   23   53 1
    58   25   55 1
    59   25   56 1
    60   25   57 1
