@<TRIPOS>MOLECULE
DB00726
   48    50     0     0     0
SMALL
USER_CHARGES

@<TRIPOS>ATOM
      1 N1         -0.7915   -0.0454   -0.8896 N.pl3     1 <0>        -0.2993
      2 N2          2.8420    1.3545    1.0056 N.3       1 <0>        -0.3080
      3 C1          1.4893    0.9535   -1.0434 C.3       1 <0>        -0.0150
      4 C2          0.0773    0.8679   -1.6495 C.3       1 <0>         0.0210
      5 C3         -0.3588   -1.3913   -0.7352 C.ar      1 <0>         0.0372
      6 C4         -2.0417    0.5205   -0.5289 C.ar      1 <0>         0.0372
      7 C5          1.5008    1.3936    0.4331 C.3       1 <0>         0.0023
      8 C6         -1.8096   -1.9184    1.3703 C.3       1 <0>        -0.0219
      9 C7         -1.8525   -0.4573    1.7866 C.3       1 <0>        -0.0219
     10 C8         -0.8357   -2.2720    0.2662 C.ar      1 <0>        -0.0257
     11 C9         -2.5883    0.3460    0.7533 C.ar      1 <0>        -0.0257
     12 C10         2.3930    1.8763   -1.8689 C.3       1 <0>        -0.0598
     13 C11         0.5762   -1.9317   -1.6586 C.ar      1 <0>        -0.0401
     14 C12        -2.7763    1.2926   -1.4553 C.ar      1 <0>        -0.0401
     15 C13        -0.3980   -3.6200    0.2822 C.ar      1 <0>        -0.0568
     16 C14        -3.8240    0.9302    1.0846 C.ar      1 <0>        -0.0568
     17 C15         1.0111   -3.2586   -1.6129 C.ar      1 <0>        -0.0600
     18 C16        -4.0035    1.8678   -1.1204 C.ar      1 <0>        -0.0600
     19 C17         0.5181   -4.1080   -0.6415 C.ar      1 <0>        -0.0614
     20 C18        -4.5274    1.6871    0.1520 C.ar      1 <0>        -0.0614
     21 C19         3.3784   -0.0067    0.9674 C.3       1 <0>        -0.0130
     22 C20         2.8298    1.8578    2.3800 C.3       1 <0>        -0.0130
     23 H1          1.9544   -0.0267   -1.1181 H         1 <0>         0.0326
     24 H2         -0.3095    1.8967   -1.6354 H         1 <0>         0.0471
     25 H3          0.1050    0.5880   -2.7104 H         1 <0>         0.0471
     26 H4          0.8367    0.7595    1.0232 H         1 <0>         0.0429
     27 H5          1.1013    2.4145    0.4931 H         1 <0>         0.0429
     28 H6         -2.8076   -2.2678    1.0738 H         1 <0>         0.0317
     29 H7         -1.5282   -2.4872    2.2672 H         1 <0>         0.0317
     30 H8         -0.8564   -0.0474    1.9696 H         1 <0>         0.0317
     31 H9         -2.3808   -0.3873    2.7463 H         1 <0>         0.0317
     32 H10         2.3853    1.5760   -2.9225 H         1 <0>         0.0233
     33 H11         3.4343    1.8443   -1.5334 H         1 <0>         0.0233
     34 H12         2.0495    2.9150   -1.8158 H         1 <0>         0.0233
     35 H13         0.9521   -1.3528   -2.4990 H         1 <0>         0.0636
     36 H14        -2.4099    1.4366   -2.4701 H         1 <0>         0.0636
     37 H15        -0.7756   -4.3041    1.0406 H         1 <0>         0.0621
     38 H16        -4.2471    0.7963    2.0774 H         1 <0>         0.0621
     39 H17         1.7166   -3.6247   -2.3528 H         1 <0>         0.0618
     40 H18        -4.5482    2.4515   -1.8565 H         1 <0>         0.0618
     41 H19         0.8387   -5.1442   -0.6011 H         1 <0>         0.0618
     42 H20        -5.4815    2.1315    0.4185 H         1 <0>         0.0618
     43 H21         3.6673   -0.3096   -0.0432 H         1 <0>         0.0391
     44 H22         2.6819   -0.7450    1.3818 H         1 <0>         0.0391
     45 H23         4.3062   -0.0662    1.5498 H         1 <0>         0.0391
     46 H24         2.4562    2.8874    2.4100 H         1 <0>         0.0391
     47 H25         3.8454    1.8830    2.7907 H         1 <0>         0.0391
     48 H26         2.2052    1.2443    3.0395 H         1 <0>         0.0391
@<TRIPOS>BOND
     1    1    4 1
     2    1    5 1
     3    1    6 1
     4    2    7 1
     5    2   21 1
     6    2   22 1
     7    3    4 1
     8    3    7 1
     9    3   12 1
    10    3   23 1
    11    4   24 1
    12    4   25 1
    13    5   10 ar
    14    5   13 ar
    15    6   11 ar
    16    6   14 ar
    17    7   26 1
    18    7   27 1
    19    8    9 1
    20    8   10 1
    21    8   28 1
    22    8   29 1
    23    9   11 1
    24    9   30 1
    25    9   31 1
    26   10   15 ar
    27   11   16 ar
    28   12   32 1
    29   12   33 1
    30   12   34 1
    31   13   17 ar
    32   13   35 1
    33   14   18 ar
    34   14   36 1
    35   15   19 ar
    36   15   37 1
    37   16   20 ar
    38   16   38 1
    39   17   19 ar
    40   17   39 1
    41   18   20 ar
    42   18   40 1
    43   19   41 1
    44   20   42 1
    45   21   43 1
    46   21   44 1
    47   21   45 1
    48   22   46 1
    49   22   47 1
    50   22   48 1
