@<TRIPOS>MOLECULE
DB00252
   31    33     0     0     0
SMALL
USER_CHARGES

@<TRIPOS>ATOM
      1 O1         -0.0126   -1.4882   -2.3795 O.2       1 <0>        -0.2722
      2 O2         -0.0038   -4.0436    1.4134 O.2       1 <0>        -0.2524
      3 N1         -0.0155   -1.7316    1.0847 N.am      1 <0>        -0.2777
      4 N2          0.0175   -3.0619   -0.6907 N.am      1 <0>        -0.2378
      5 C1         -0.0014   -0.7714   -0.0193 C.3       1 <0>         0.1634
      6 C2         -1.2775    0.0742   -0.1073 C.ar      1 <0>        -0.0108
      7 C3          1.2728    0.0704    0.1000 C.ar      1 <0>        -0.0108
      8 C4          0.0040   -1.7827   -1.1901 C.2       1 <0>         0.2531
      9 C5          0.0000   -3.0639    0.6811 C.2       1 <0>         0.3072
     10 C6         -1.4416    0.9821   -1.1536 C.ar      1 <0>        -0.0557
     11 C7          1.4409    0.9418    1.1797 C.ar      1 <0>        -0.0557
     12 C8         -2.2743   -0.0644    0.8586 C.ar      1 <0>        -0.0557
     13 C9          2.2743   -0.0285   -0.8700 C.ar      1 <0>        -0.0557
     14 C10        -2.6025    1.7513   -1.2339 C.ar      1 <0>        -0.0614
     15 C11         2.6012    1.7084    1.2885 C.ar      1 <0>        -0.0614
     16 C12        -3.4352    0.7049    0.7781 C.ar      1 <0>        -0.0614
     17 C13         3.4346    0.7380   -0.7610 C.ar      1 <0>        -0.0614
     18 C14        -3.5992    1.6127   -0.2682 C.ar      1 <0>        -0.0617
     19 C15         3.5979    1.6064    0.3184 C.ar      1 <0>        -0.0617
     20 H1         -0.0196   -1.4596    2.0636 H         1 <0>         0.1519
     21 H2          0.0249   -3.8980   -1.2633 H         1 <0>         0.1591
     22 H3         -0.6756    1.1095   -1.9133 H         1 <0>         0.0621
     23 H4          0.6764    1.0333    1.9468 H         1 <0>         0.0621
     24 H5         -2.1884   -0.7571    1.6895 H         1 <0>         0.0621
     25 H6          2.2038   -0.6946   -1.7221 H         1 <0>         0.0621
     26 H7         -2.7297    2.4593   -2.0477 H         1 <0>         0.0618
     27 H8          2.7288    2.3840    2.1292 H         1 <0>         0.0618
     28 H9         -4.2116    0.5976    1.5299 H         1 <0>         0.0618
     29 H10         4.2125    0.6572   -1.5146 H         1 <0>         0.0618
     30 H11        -4.5028    2.2119   -0.3305 H         1 <0>         0.0618
     31 H12         4.5017    2.2026    0.4035 H         1 <0>         0.0618
@<TRIPOS>BOND
     1    1    8 2
     2    2    9 2
     3    3    5 1
     4    3    9 am
     5    3   20 1
     6    4    8 am
     7    4    9 am
     8    4   21 1
     9    5    6 1
    10    5    7 1
    11    5    8 1
    12    6   10 ar
    13    6   12 ar
    14    7   11 ar
    15    7   13 ar
    16   10   14 ar
    17   10   22 1
    18   11   15 ar
    19   11   23 1
    20   12   16 ar
    21   12   24 1
    22   13   17 ar
    23   13   25 1
    24   14   18 ar
    25   14   26 1
    26   15   19 ar
    27   15   27 1
    28   16   18 ar
    29   16   28 1
    30   17   19 ar
    31   17   29 1
    32   18   30 1
    33   19   31 1
