@<TRIPOS>MOLECULE
DB00910
   74    76     0     0     0
SMALL
USER_CHARGES

@<TRIPOS>ATOM
      1 O1          8.1914    1.5650    0.3982 O.3       1 <0>        -0.3885
      2 O2         -8.9994    0.4681   -1.0671 O.3       1 <0>        -0.3914
      3 O3         -5.1749    2.3790   -1.6552 O.3       1 <0>        -0.3914
      4 C1          0.0593   -1.3838    0.0855 C.3       1 <0>        -0.0222
      5 C2          1.4365   -0.9499    0.6433 C.3       1 <0>        -0.0291
      6 C3         -0.8536   -0.8547    1.2192 C.3       1 <0>        -0.0139
      7 C4          1.1791    0.4634    1.2152 C.3       1 <0>        -0.0486
      8 C5         -0.3394    0.5675    1.4500 C.3       1 <0>        -0.0457
      9 C6         -0.1305   -2.9106   -0.0218 C.3       1 <0>        -0.0465
     10 C7          2.6060   -0.9916   -0.3298 C.3       1 <0>        -0.0224
     11 C8         -2.3017   -1.1545    0.9412 C.2       1 <0>        -0.0659
     12 C9         -0.2280   -0.7262   -1.2889 C.3       1 <0>        -0.0587
     13 C10        -1.6052   -3.2859   -0.2552 C.3       1 <0>        -0.0488
     14 C11        -2.5658   -2.6344    0.7529 C.3       1 <0>        -0.0312
     15 C12         2.8189   -2.4093   -0.8654 C.3       1 <0>        -0.0587
     16 C13         3.8666   -0.5001    0.3397 C.2       1 <0>        -0.0845
     17 C14        -3.2783   -0.2396    0.8682 C.2       1 <0>        -0.0623
     18 C15         4.5634    0.5696   -0.0739 C.2       1 <0>        -0.0821
     19 C16        -4.6563   -0.5734    0.6067 C.2       1 <0>        -0.0624
     20 C17         5.8235    1.0621    0.6008 C.3       1 <0>         0.0026
     21 C18        -5.6337    0.3416    0.5335 C.2       1 <0>        -0.0647
     22 C19         7.0728    1.0407   -0.3319 C.3       1 <0>         0.0665
     23 C20        -7.0653   -0.0308    0.2594 C.3       1 <0>        -0.0051
     24 C21        -5.3725    1.8194    0.6938 C.3       1 <0>        -0.0051
     25 C22         5.5534    2.4463    1.2086 C.3       1 <0>        -0.0563
     26 C23        -7.6088    0.7488   -0.9391 C.3       1 <0>         0.0613
     27 C24        -5.9482    2.6196   -0.4803 C.3       1 <0>         0.0613
     28 C25        -7.4076    2.2590   -0.7649 C.3       1 <0>        -0.0001
     29 C26         6.9279    1.9109   -1.5851 C.3       1 <0>        -0.0358
     30 C27         7.4434   -0.3911   -0.7460 C.3       1 <0>        -0.0358
     31 H1          1.6771   -1.5990    1.5005 H         1 <0>         0.0312
     32 H2         -0.6184   -1.4064    2.1451 H         1 <0>         0.0351
     33 H3          1.4947    1.2569    0.5281 H         1 <0>         0.0268
     34 H4          1.7260    0.6051    2.1542 H         1 <0>         0.0268
     35 H5         -0.5655    0.9238    2.4605 H         1 <0>         0.0271
     36 H6         -0.7718    1.2844    0.7430 H         1 <0>         0.0271
     37 H7          0.2129   -3.3978    0.8998 H         1 <0>         0.0271
     38 H8          0.4363   -3.3512   -0.8422 H         1 <0>         0.0271
     39 H9          2.4032   -0.3407   -1.1898 H         1 <0>         0.0343
     40 H10        -1.2804   -0.8112   -1.5767 H         1 <0>         0.0235
     41 H11         0.0134    0.3415   -1.2991 H         1 <0>         0.0235
     42 H12         0.3546   -1.1974   -2.0869 H         1 <0>         0.0235
     43 H13        -1.7096   -4.3763   -0.1987 H         1 <0>         0.0268
     44 H14        -1.9016   -3.0029   -1.2725 H         1 <0>         0.0268
     45 H15        -2.4207   -3.1200    1.7277 H         1 <0>         0.0310
     46 H16        -3.5729   -2.9060    0.4403 H         1 <0>         0.0310
     47 H17         2.7218   -3.1699   -0.0835 H         1 <0>         0.0235
     48 H18         2.1388   -2.6339   -1.6897 H         1 <0>         0.0235
     49 H19         3.8265   -2.5144   -1.2877 H         1 <0>         0.0235
     50 H20         4.2190   -1.0636    1.2008 H         1 <0>         0.0572
     51 H21        -2.9900    0.7874    1.0345 H         1 <0>         0.0617
     52 H22         4.2020    1.1354   -0.9289 H         1 <0>         0.0573
     53 H23        -4.9586   -1.6031    0.4731 H         1 <0>         0.0617
     54 H24         6.0502    0.4091    1.4562 H         1 <0>         0.0368
     55 H25        -7.1809   -1.1065    0.0764 H         1 <0>         0.0335
     56 H26        -7.6717    0.1815    1.1498 H         1 <0>         0.0335
     57 H27        -5.8695    2.1444    1.6176 H         1 <0>         0.0335
     58 H28        -4.3273    2.1054    0.7982 H         1 <0>         0.0335
     59 H29        -7.1165    0.4169   -1.8614 H         1 <0>         0.0597
     60 H30        -5.8809    3.6919   -0.2641 H         1 <0>         0.0597
     61 H31         5.2825    3.1834    0.4455 H         1 <0>         0.0236
     62 H32         4.7244    2.3979    1.9245 H         1 <0>         0.0236
     63 H33         6.4272    2.8222    1.7505 H         1 <0>         0.0236
     64 H34        -7.7549    2.7665   -1.6735 H         1 <0>         0.0315
     65 H35        -8.0462    2.6198    0.0518 H         1 <0>         0.0315
     66 H36         7.8602    1.9093   -2.1629 H         1 <0>         0.0257
     67 H37         6.1261    1.5631   -2.2432 H         1 <0>         0.0257
     68 H38         6.7413    2.9582   -1.3261 H         1 <0>         0.0257
     69 H39         7.5874   -1.0268    0.1350 H         1 <0>         0.0257
     70 H40         6.6772   -0.8469   -1.3810 H         1 <0>         0.0257
     71 H41         8.3939   -0.4040   -1.2922 H         1 <0>         0.0257
     72 H42         8.3188    1.0116    1.1878 H         1 <0>         0.2102
     73 H43        -9.0949   -0.4912   -1.1950 H         1 <0>         0.2098
     74 H44        -4.2561    2.6284   -1.4580 H         1 <0>         0.2098
@<TRIPOS>BOND
     1    1   22 1
     2    1   72 1
     3    2   26 1
     4    2   73 1
     5    3   27 1
     6    3   74 1
     7    4    5 1
     8    4    6 1
     9    4    9 1
    10    4   12 1
    11    5    7 1
    12    5   10 1
    13    5   31 1
    14    6    8 1
    15    6   11 1
    16    6   32 1
    17    7    8 1
    18    7   33 1
    19    7   34 1
    20    8   35 1
    21    8   36 1
    22    9   13 1
    23    9   37 1
    24    9   38 1
    25   10   15 1
    26   10   16 1
    27   10   39 1
    28   11   14 1
    29   11   17 2
    30   12   40 1
    31   12   41 1
    32   12   42 1
    33   13   14 1
    34   13   43 1
    35   13   44 1
    36   14   45 1
    37   14   46 1
    38   15   47 1
    39   15   48 1
    40   15   49 1
    41   16   18 2
    42   16   50 1
    43   17   19 1
    44   17   51 1
    45   18   20 1
    46   18   52 1
    47   19   21 2
    48   19   53 1
    49   20   22 1
    50   20   25 1
    51   20   54 1
    52   21   23 1
    53   21   24 1
    54   22   29 1
    55   22   30 1
    56   23   26 1
    57   23   55 1
    58   23   56 1
    59   24   27 1
    60   24   57 1
    61   24   58 1
    62   25   61 1
    63   25   62 1
    64   25   63 1
    65   26   28 1
    66   26   59 1
    67   27   28 1
    68   27   60 1
    69   28   64 1
    70   28   65 1
    71   29   66 1
    72   29   67 1
    73   29   68 1
    74   30   69 1
    75   30   70 1
    76   30   71 1
