@<TRIPOS>MOLECULE
DB00132
   50    49     0     0     0
SMALL
USER_CHARGES

@<TRIPOS>ATOM
      1 O1          4.4014    0.5709    0.3327 O.3       1 <0>        -0.4806
      2 O2          4.5708   -0.7095   -1.5375 O.2       1 <0>        -0.2510
      3 C1          0.5613   -2.8064   -0.0641 C.3       1 <0>        -0.0530
      4 C2         -0.7809   -2.0688   -0.0877 C.3       1 <0>        -0.0528
      5 C3          1.7426   -1.8985    0.2879 C.3       1 <0>        -0.0526
      6 C4         -1.9532   -2.9601   -0.5147 C.3       1 <0>        -0.0496
      7 C5          3.0677   -2.6652    0.2241 C.3       1 <0>        -0.0430
      8 C6         -3.2797   -2.1940   -0.6087 C.3       1 <0>        -0.0348
      9 C7          4.2640   -1.7954    0.5982 C.3       1 <0>         0.0448
     10 C8         -3.8074   -1.5257    0.6329 C.2       1 <0>        -0.0876
     11 C9          4.4302   -0.6147   -0.3252 C.2       1 <0>         0.3047
     12 C10        -4.0096   -0.2137    0.8293 C.2       1 <0>        -0.0842
     13 C11        -3.7272    0.8356   -0.2072 C.3       1 <0>        -0.0165
     14 C12        -3.4332    2.1650    0.4245 C.2       1 <0>        -0.0839
     15 C13        -2.1955    2.6002    0.7050 C.2       1 <0>        -0.0839
     16 C14        -0.9502    1.8119    0.4218 C.3       1 <0>        -0.0165
     17 C15        -0.4459    2.0592   -0.9700 C.2       1 <0>        -0.0842
     18 C16         0.4408    3.0155   -1.2839 C.2       1 <0>        -0.0879
     19 C17         1.0398    3.9583   -0.2826 C.3       1 <0>        -0.0376
     20 C18         2.3224    3.3962    0.3105 C.3       1 <0>        -0.0618
     21 H1          0.5070   -3.6312    0.6571 H         1 <0>         0.0265
     22 H2          0.7359   -3.2572   -1.0490 H         1 <0>         0.0265
     23 H3         -0.9728   -1.6554    0.9090 H         1 <0>         0.0265
     24 H4         -0.7084   -1.2248   -0.7836 H         1 <0>         0.0265
     25 H5          1.6001   -1.4859    1.2939 H         1 <0>         0.0265
     26 H6          1.7619   -1.0523   -0.4089 H         1 <0>         0.0265
     27 H7         -1.7358   -3.4113   -1.4904 H         1 <0>         0.0268
     28 H8         -2.0595   -3.7844    0.2013 H         1 <0>         0.0268
     29 H9          3.2072   -3.0639   -0.7883 H         1 <0>         0.0270
     30 H10         3.0284   -3.5242    0.9047 H         1 <0>         0.0270
     31 H11        -4.0479   -2.9126   -0.9254 H         1 <0>         0.0307
     32 H12        -3.2061   -1.4849   -1.4400 H         1 <0>         0.0307
     33 H13         4.1528   -1.4376    1.6287 H         1 <0>         0.0377
     34 H14         5.1905   -2.3790    0.5635 H         1 <0>         0.0377
     35 H15        -4.0630   -2.1980    1.4498 H         1 <0>         0.0569
     36 H16        -4.4397    0.1001    1.7779 H         1 <0>         0.0572
     37 H17        -2.9251    0.5426   -0.8882 H         1 <0>         0.0350
     38 H18        -4.6228    0.9603   -0.8289 H         1 <0>         0.0350
     39 H19        -4.2793    2.8004    0.6741 H         1 <0>         0.0572
     40 H20        -2.0778    3.5813    1.1577 H         1 <0>         0.0572
     41 H21        -0.2006    2.0598    1.1813 H         1 <0>         0.0350
     42 H22        -1.1164    0.7398    0.5580 H         1 <0>         0.0350
     43 H23         4.5180    1.3290   -0.2785 H         1 <0>         0.2951
     44 H24        -0.8265    1.4234   -1.7650 H         1 <0>         0.0572
     45 H25         0.7611    3.1142   -2.3176 H         1 <0>         0.0569
     46 H26         0.3364    4.2078    0.5184 H         1 <0>         0.0305
     47 H27         1.2589    4.9060   -0.7890 H         1 <0>         0.0305
     48 H28         2.1467    2.4541    0.8396 H         1 <0>         0.0233
     49 H29         2.7506    4.1078    1.0237 H         1 <0>         0.0233
     50 H30         3.0681    3.2152   -0.4708 H         1 <0>         0.0233
@<TRIPOS>BOND
     1    1   11 1
     2    1   43 1
     3    2   11 2
     4    3    4 1
     5    3    5 1
     6    3   21 1
     7    3   22 1
     8    4    6 1
     9    4   23 1
    10    4   24 1
    11    5    7 1
    12    5   25 1
    13    5   26 1
    14    6    8 1
    15    6   27 1
    16    6   28 1
    17    7    9 1
    18    7   29 1
    19    7   30 1
    20    8   10 1
    21    8   31 1
    22    8   32 1
    23    9   11 1
    24    9   33 1
    25    9   34 1
    26   10   12 2
    27   10   35 1
    28   12   13 1
    29   12   36 1
    30   13   14 1
    31   13   37 1
    32   13   38 1
    33   14   15 2
    34   14   39 1
    35   15   16 1
    36   15   40 1
    37   16   17 1
    38   16   41 1
    39   16   42 1
    40   17   18 2
    41   17   44 1
    42   18   19 1
    43   18   45 1
    44   19   20 1
    45   19   46 1
    46   19   47 1
    47   20   48 1
    48   20   49 1
    49   20   50 1
