@<TRIPOS>MOLECULE
DB00854
   42    45     0     0     0
SMALL
USER_CHARGES

@<TRIPOS>ATOM
      1 O1          4.7071   -0.6573    0.9593 O.3       1 <0>        -0.5068
      2 N1         -2.1047   -1.6676    0.1495 N.3       1 <0>        -0.3018
      3 C1         -0.1104    0.4811    0.6628 C.3       1 <0>         0.0015
      4 C2         -1.1737    0.5870   -0.4635 C.3       1 <0>        -0.0154
      5 C3         -1.5318   -0.8338   -0.9359 C.3       1 <0>         0.0177
      6 C4         -0.7495   -0.3341    1.8207 C.3       1 <0>        -0.0302
      7 C5          0.1928    1.9212    1.1598 C.3       1 <0>        -0.0430
      8 C6         -0.7377    1.5226   -1.6090 C.3       1 <0>        -0.0480
      9 C7          1.1299   -0.2904    0.1743 C.ar      1 <0>        -0.0342
     10 C8         -0.2999   -1.5246   -1.5575 C.3       1 <0>        -0.0115
     11 C9         -1.2814   -1.7026    1.3667 C.3       1 <0>        -0.0003
     12 C10         0.6363    2.8600    0.0360 C.3       1 <0>        -0.0522
     13 C11        -0.3953    2.9152   -1.0857 C.3       1 <0>        -0.0527
     14 C12         1.0147   -1.2423   -0.8650 C.ar      1 <0>        -0.0419
     15 C13         2.3860   -0.1263    0.7860 C.ar      1 <0>        -0.0162
     16 C14        -3.4879   -1.3003    0.4553 C.3       1 <0>        -0.0125
     17 C15         2.1480   -1.9536   -1.2949 C.ar      1 <0>        -0.0548
     18 C16         3.5027   -0.8445    0.3531 C.ar      1 <0>         0.1172
     19 C17         3.3856   -1.7529   -0.6912 C.ar      1 <0>        -0.0199
     20 H1         -2.0794    1.0469   -0.0418 H         1 <0>         0.0324
     21 H2         -2.2823   -0.7726   -1.7358 H         1 <0>         0.0469
     22 H3         -1.5817    0.2355    2.2554 H         1 <0>         0.0286
     23 H4         -0.0252   -0.4849    2.6317 H         1 <0>         0.0286
     24 H5          0.9371    1.9300    1.9626 H         1 <0>         0.0274
     25 H6         -0.7174    2.3440    1.6085 H         1 <0>         0.0274
     26 H7         -1.5470    1.6037   -2.3446 H         1 <0>         0.0269
     27 H8          0.1317    1.1286   -2.1458 H         1 <0>         0.0269
     28 H9         -0.2016   -1.1872   -2.5982 H         1 <0>         0.0328
     29 H10        -0.4655   -2.6093   -1.6018 H         1 <0>         0.0328
     30 H11        -0.4396   -2.3846    1.1980 H         1 <0>         0.0427
     31 H12        -1.8370   -2.1655    2.1926 H         1 <0>         0.0427
     32 H13         1.6031    2.5388   -0.3677 H         1 <0>         0.0266
     33 H14         0.7844    3.8675    0.4416 H         1 <0>         0.0266
     34 H15        -1.3082    3.3989   -0.7168 H         1 <0>         0.0265
     35 H16        -0.0172    3.5357   -1.9060 H         1 <0>         0.0265
     36 H17         2.5067    0.5604    1.6188 H         1 <0>         0.0657
     37 H18        -3.9287   -2.0259    1.1485 H         1 <0>         0.0391
     38 H19        -4.1059   -1.3285   -0.4491 H         1 <0>         0.0391
     39 H20        -3.5806   -0.3066    0.9045 H         1 <0>         0.0391
     40 H21         2.0652   -2.6755   -2.1041 H         1 <0>         0.0622
     41 H22         4.2502   -2.3144   -1.0335 H         1 <0>         0.0654
     42 H23         4.6083    0.0079    1.6621 H         1 <0>         0.2921
@<TRIPOS>BOND
     1    1   18 1
     2    1   42 1
     3    2    5 1
     4    2   11 1
     5    2   16 1
     6    3    4 1
     7    3    6 1
     8    3    7 1
     9    3    9 1
    10    4    5 1
    11    4    8 1
    12    4   20 1
    13    5   10 1
    14    5   21 1
    15    6   11 1
    16    6   22 1
    17    6   23 1
    18    7   12 1
    19    7   24 1
    20    7   25 1
    21    8   13 1
    22    8   26 1
    23    8   27 1
    24    9   14 ar
    25    9   15 ar
    26   10   14 1
    27   10   28 1
    28   10   29 1
    29   11   30 1
    30   11   31 1
    31   12   13 1
    32   12   32 1
    33   12   33 1
    34   13   34 1
    35   13   35 1
    36   14   17 ar
    37   15   18 ar
    38   15   36 1
    39   16   37 1
    40   16   38 1
    41   16   39 1
    42   17   19 ar
    43   17   40 1
    44   18   19 ar
    45   19   41 1
