@<TRIPOS>MOLECULE
DB00656
   48    51     0     0     0
SMALL
USER_CHARGES

@<TRIPOS>ATOM
      1 Cl1         7.3017    2.1628    1.7540 Cl        1 <0>        -0.0835
      2 O1         -5.2206   -2.1084   -0.5077 O.2       1 <0>        -0.2444
      3 N1          0.1932   -0.7611    0.6160 N.3       1 <0>        -0.2993
      4 N2          2.9307   -0.0618    0.1970 N.pl3     1 <0>        -0.3274
      5 N3         -3.1942   -0.9086   -0.6723 N.am      1 <0>        -0.2123
      6 N4         -5.0638    0.2290   -0.4275 N.ar      1 <0>        -0.2508
      7 N5         -2.8470    0.4243   -0.6531 N.2       1 <0>        -0.1488
      8 C1          0.8125    0.3152    1.3992 C.3       1 <0>         0.0147
      9 C2          1.1882   -1.7985    0.3190 C.3       1 <0>         0.0147
     10 C3          1.9680    0.9591    0.6296 C.3       1 <0>         0.0250
     11 C4          2.3573   -1.2255   -0.4858 C.3       1 <0>         0.0250
     12 C5         -0.9434   -1.3319    1.3381 C.3       1 <0>         0.0007
     13 C6         -1.6524   -2.4174    0.5230 C.3       1 <0>        -0.0204
     14 C7         -2.2039   -1.9398   -0.8189 C.3       1 <0>         0.0479
     15 C8          4.2330    0.3497   -0.1077 C.ar      1 <0>         0.0311
     16 C9          5.0404    0.9822    0.8589 C.ar      1 <0>        -0.0223
     17 C10         4.7768    0.1428   -1.3913 C.ar      1 <0>        -0.0406
     18 C11        -4.5883   -1.0623   -0.5314 C.2       1 <0>         0.3510
     19 C12        -3.9759    1.0447   -0.5082 C.ar      1 <0>         0.1617
     20 C13         6.3389    1.3907    0.5545 C.ar      1 <0>         0.0427
     21 C14         6.0754    0.5517   -1.6958 C.ar      1 <0>        -0.0586
     22 C15         6.8564    1.1755   -0.7229 C.ar      1 <0>        -0.0433
     23 C16        -6.3492    0.6661   -0.2734 C.ar      1 <0>         0.0161
     24 C17        -4.2084    2.5036   -0.4229 C.ar      1 <0>        -0.0170
     25 C18        -6.5834    1.9843   -0.1940 C.ar      1 <0>        -0.0449
     26 C19        -5.4765    2.9194   -0.2719 C.ar      1 <0>        -0.0569
     27 H1          1.1799   -0.0661    2.3615 H         1 <0>         0.0442
     28 H2          0.0717    1.0942    1.6176 H         1 <0>         0.0442
     29 H3          0.7745   -2.6012   -0.2979 H         1 <0>         0.0442
     30 H4          1.5660   -2.2530    1.2449 H         1 <0>         0.0442
     31 H5          1.5853    1.4900   -0.2518 H         1 <0>         0.0476
     32 H6          2.4356    1.7075    1.2796 H         1 <0>         0.0476
     33 H7          3.1102   -2.0150   -0.6025 H         1 <0>         0.0476
     34 H8          2.0103   -0.9367   -1.4864 H         1 <0>         0.0476
     35 H9         -0.6186   -1.7676    2.2926 H         1 <0>         0.0427
     36 H10        -1.6625   -0.5439    1.5916 H         1 <0>         0.0427
     37 H11        -1.0209   -3.2992    0.3757 H         1 <0>         0.0295
     38 H12        -2.4951   -2.7762    1.1304 H         1 <0>         0.0295
     39 H13        -1.4100   -1.5773   -1.4804 H         1 <0>         0.0511
     40 H14        -2.6835   -2.7901   -1.3173 H         1 <0>         0.0511
     41 H15         4.6492    1.1426    1.8621 H         1 <0>         0.0651
     42 H16         4.1944   -0.3286   -2.1789 H         1 <0>         0.0636
     43 H17         6.4774    0.3870   -2.6912 H         1 <0>         0.0619
     44 H18         7.8661    1.4896   -0.9748 H         1 <0>         0.0632
     45 H19        -7.1335   -0.0783   -0.2216 H         1 <0>         0.0815
     46 H20        -3.3693    3.1839   -0.4828 H         1 <0>         0.0655
     47 H21        -7.5865    2.3752   -0.0717 H         1 <0>         0.0632
     48 H22        -5.7061    3.9772   -0.2036 H         1 <0>         0.0619
@<TRIPOS>BOND
     1    1   20 1
     2    2   18 2
     3    3    8 1
     4    3    9 1
     5    3   12 1
     6    4   10 1
     7    4   11 1
     8    4   15 1
     9    5    7 2
    10    5   14 1
    11    5   18 am
    12    6   18 am
    13    6   19 ar
    14    6   23 ar
    15    7   19 1
    16    8   10 1
    17    8   27 1
    18    8   28 1
    19    9   11 1
    20    9   29 1
    21    9   30 1
    22   10   31 1
    23   10   32 1
    24   11   33 1
    25   11   34 1
    26   12   13 1
    27   12   35 1
    28   12   36 1
    29   13   14 1
    30   13   37 1
    31   13   38 1
    32   14   39 1
    33   14   40 1
    34   15   16 ar
    35   15   17 ar
    36   16   20 ar
    37   16   41 1
    38   17   21 ar
    39   17   42 1
    40   19   24 ar
    41   20   22 ar
    42   21   22 ar
    43   21   43 1
    44   22   44 1
    45   23   25 ar
    46   23   45 1
    47   24   26 ar
    48   24   46 1
    49   25   26 ar
    50   25   47 1
    51   26   48 1
