@<TRIPOS>MOLECULE
DB00134
   20    19     0     0     0
SMALL
USER_CHARGES

@<TRIPOS>ATOM
      1 S1          1.6814   -1.2469   -0.8222 S.3       1 <0>        -0.1641
      2 O1         -1.8276   -1.5211   -1.1524 O.3       1 <0>        -0.4795
      3 O2         -3.0737   -0.6114    0.5084 O.2       1 <0>        -0.2493
      4 N1         -1.7101    1.7574    0.1476 N.3       1 <0>        -0.3184
      5 C1          0.0348    0.2175    0.9049 C.3       1 <0>        -0.0183
      6 C2         -1.0181    0.5056   -0.1749 C.3       1 <0>         0.1040
      7 C3          0.7893   -1.1069    0.7548 C.3       1 <0>        -0.0047
      8 C4         -2.0804   -0.5787   -0.2074 C.2       1 <0>         0.3217
      9 C5          2.7725    0.1812   -0.6321 C.3       1 <0>        -0.0181
     10 H1          0.7429    1.0525    0.9701 H         1 <0>         0.0293
     11 H2         -0.4629    0.1850    1.8850 H         1 <0>         0.0293
     12 H3         -0.5713    0.6138   -1.1682 H         1 <0>         0.0574
     13 H4          0.0981   -1.9524    0.8296 H         1 <0>         0.0377
     14 H5          1.5081   -1.2190    1.5738 H         1 <0>         0.0377
     15 H6         -2.3572    1.9929   -0.6043 H         1 <0>         0.1190
     16 H7         -1.0343    2.5196    0.1879 H         1 <0>         0.1190
     17 H8          2.2225    1.1144   -0.7736 H         1 <0>         0.0340
     18 H9          3.5507    0.1333   -1.3992 H         1 <0>         0.0340
     19 H10         3.2587    0.1758    0.3469 H         1 <0>         0.0340
     20 H11        -2.5232   -2.2125   -1.1746 H         1 <0>         0.2951
@<TRIPOS>BOND
     1    1    7 1
     2    1    9 1
     3    2    8 1
     4    2   20 1
     5    3    8 2
     6    4    6 1
     7    4   15 1
     8    4   16 1
     9    5    6 1
    10    5    7 1
    11    5   10 1
    12    5   11 1
    13    6    8 1
    14    6   12 1
    15    7   13 1
    16    7   14 1
    17    9   17 1
    18    9   18 1
    19    9   19 1
