@<TRIPOS>MOLECULE
DB00834
   67    71     0     0     0
SMALL
USER_CHARGES

@<TRIPOS>ATOM
      1 O1         -2.0704    4.1065   -0.0066 O.3       1 <0>        -0.3760
      2 O2         -1.3065   -6.3827    1.2841 O.2       1 <0>        -0.2927
      3 N1          5.6157    0.9405    0.0390 N.pl3     1 <0>        -0.3360
      4 C1         -1.4132    1.7296   -0.3130 C.3       1 <0>         0.0122
      5 C2         -2.1789    0.5653   -0.9727 C.3       1 <0>        -0.0254
      6 C3         -1.2809   -0.6206   -1.3386 C.3       1 <0>        -0.0150
      7 C4         -2.5609    2.7856   -0.1870 C.3       1 <0>         0.1320
      8 C5         -0.8147    1.2041    1.0047 C.3       1 <0>        -0.0332
      9 C6         -2.9699    1.2472   -2.0898 C.3       1 <0>        -0.0455
     10 C7         -3.3147    2.6454   -1.5367 C.3       1 <0>        -0.0118
     11 C8          0.0455   -0.0915    0.8598 C.3       1 <0>         0.0066
     12 C9         -0.5677   -1.1538   -0.0777 C.2       1 <0>        -0.0553
     13 C10        -2.0991   -1.6933   -2.0807 C.3       1 <0>        -0.0422
     14 C11        -0.2746    2.3113   -1.1947 C.3       1 <0>        -0.0557
     15 C12        -0.4770   -2.4888    0.1653 C.2       1 <0>        -0.0436
     16 C13        -1.3282   -3.0005   -2.1586 C.3       1 <0>        -0.0268
     17 C14         1.5348    0.1852    0.6403 C.ar      1 <0>        -0.0401
     18 C15        -1.0318   -3.4810   -0.7647 C.2       1 <0>        -0.0409
     19 C16        -3.4932    2.5142    0.9259 C.1       1 <0>        -0.0673
     20 C17         0.2507   -3.1249    1.3334 C.3       1 <0>        -0.0204
     21 C18        -1.2798   -4.7540   -0.4143 C.2       1 <0>        -0.0158
     22 C19        -0.5952   -4.2052    1.9955 C.3       1 <0>         0.0139
     23 C20         2.3435    0.5140    1.7238 C.ar      1 <0>        -0.0563
     24 C21         2.0707    0.1051   -0.6416 C.ar      1 <0>        -0.0563
     25 C22        -1.0580   -5.2188    0.9773 C.2       1 <0>         0.1567
     26 C23        -4.2517    2.2938    1.8304 C.1       1 <0>        -0.1027
     27 C24         3.7008    0.7654    1.5239 C.ar      1 <0>        -0.0404
     28 C25         3.4282    0.3562   -0.8417 C.ar      1 <0>        -0.0404
     29 C26         4.2433    0.6863    0.2411 C.ar      1 <0>         0.0292
     30 C27        -5.1753    2.0255    2.9318 C.3       1 <0>        -0.0025
     31 C28         6.3268    1.8617    0.9032 C.3       1 <0>         0.0004
     32 C29         6.3365    0.2732   -1.0270 C.3       1 <0>         0.0004
     33 H1         -2.9239    0.1794   -0.2577 H         1 <0>         0.0313
     34 H2         -0.5199   -0.2979   -2.0534 H         1 <0>         0.0349
     35 H3         -1.6279    0.9460    1.6952 H         1 <0>         0.0281
     36 H4         -0.2457    1.9970    1.5070 H         1 <0>         0.0281
     37 H5         -3.8758    0.6887   -2.3470 H         1 <0>         0.0269
     38 H6         -2.3689    1.3433   -3.0015 H         1 <0>         0.0269
     39 H7         -0.0081   -0.5138    1.8722 H         1 <0>         0.0394
     40 H8         -3.0009    3.4148   -2.2524 H         1 <0>         0.0303
     41 H9         -4.4000    2.7542   -1.4216 H         1 <0>         0.0303
     42 H10        -2.3338   -1.3487   -3.0952 H         1 <0>         0.0274
     43 H11        -3.0594   -1.8627   -1.5747 H         1 <0>         0.0274
     44 H12         0.4106    2.9221   -0.5958 H         1 <0>         0.0236
     45 H13         0.3056    1.5663   -1.7266 H         1 <0>         0.0236
     46 H14        -0.6652    2.9702   -1.9787 H         1 <0>         0.0236
     47 H15        -0.3890   -2.8568   -2.7075 H         1 <0>         0.0313
     48 H16        -1.9183   -3.7345   -2.7201 H         1 <0>         0.0313
     49 H17        -2.8101    4.7246   -0.1375 H         1 <0>         0.2114
     50 H18         1.1795   -3.5727    0.9528 H         1 <0>         0.0317
     51 H19         0.5559   -2.4136    2.1025 H         1 <0>         0.0317
     52 H20        -1.6824   -5.4758   -1.1166 H         1 <0>         0.0655
     53 H21        -1.4778   -3.7754    2.4822 H         1 <0>         0.0348
     54 H22         0.0049   -4.7214    2.7528 H         1 <0>         0.0348
     55 H23         1.9329    0.5774    2.7277 H         1 <0>         0.0621
     56 H24         1.4952   -0.1906   -1.5077 H         1 <0>         0.0621
     57 H25         4.3099    1.0083    2.3899 H         1 <0>         0.0636
     58 H26         3.8191    0.2882   -1.8530 H         1 <0>         0.0636
     59 H27        -6.1629    1.7468    2.5523 H         1 <0>         0.0362
     60 H28        -4.8077    1.2056    3.5562 H         1 <0>         0.0362
     61 H29        -5.2919    2.9095    3.5660 H         1 <0>         0.0362
     62 H30         5.7293    2.7556    1.1154 H         1 <0>         0.0428
     63 H31         7.2541    2.2078    0.4332 H         1 <0>         0.0428
     64 H32         6.5968    1.3778    1.8475 H         1 <0>         0.0428
     65 H33         6.0598   -0.7849   -1.0973 H         1 <0>         0.0428
     66 H34         7.4180    0.3049   -0.8533 H         1 <0>         0.0428
     67 H35         6.1436    0.7592   -1.9892 H         1 <0>         0.0428
@<TRIPOS>BOND
     1    1    7 1
     2    1   49 1
     3    2   25 2
     4    3   29 1
     5    3   31 1
     6    3   32 1
     7    4    5 1
     8    4    7 1
     9    4    8 1
    10    4   14 1
    11    5    6 1
    12    5    9 1
    13    5   33 1
    14    6   12 1
    15    6   13 1
    16    6   34 1
    17    7   10 1
    18    7   19 1
    19    8   11 1
    20    8   35 1
    21    8   36 1
    22    9   10 1
    23    9   37 1
    24    9   38 1
    25   10   40 1
    26   10   41 1
    27   11   12 1
    28   11   17 1
    29   11   39 1
    30   12   15 2
    31   13   16 1
    32   13   42 1
    33   13   43 1
    34   14   44 1
    35   14   45 1
    36   14   46 1
    37   15   18 1
    38   15   20 1
    39   16   18 1
    40   16   47 1
    41   16   48 1
    42   17   23 ar
    43   17   24 ar
    44   18   21 2
    45   19   26 3
    46   20   22 1
    47   20   50 1
    48   20   51 1
    49   21   25 1
    50   21   52 1
    51   22   25 1
    52   22   53 1
    53   22   54 1
    54   23   27 ar
    55   23   55 1
    56   24   28 ar
    57   24   56 1
    58   26   30 1
    59   27   29 ar
    60   27   57 1
    61   28   29 ar
    62   28   58 1
    63   30   59 1
    64   30   60 1
    65   30   61 1
    66   31   62 1
    67   31   63 1
    68   31   64 1
    69   32   65 1
    70   32   66 1
    71   32   67 1
