@<TRIPOS>MOLECULE
DB00988
   22    22     0     0     0
SMALL
USER_CHARGES

@<TRIPOS>ATOM
      1 O1         -2.6709   -2.2212   -0.0398 O.3       1 <0>        -0.5033
      2 O2         -3.9491    0.2360   -0.2733 O.3       1 <0>        -0.5033
      3 N1          3.8480   -0.1073   -0.4841 N.3       1 <0>        -0.3297
      4 C1          1.6222    0.0130    0.5953 C.3       1 <0>        -0.0152
      5 C2          0.1497    0.0683    0.3663 C.ar      1 <0>        -0.0425
      6 C3          2.4106   -0.0271   -0.7217 C.3       1 <0>        -0.0029
      7 C4         -0.5859   -1.1128    0.2681 C.ar      1 <0>        -0.0133
      8 C5         -0.4920    1.3013    0.2495 C.ar      1 <0>        -0.0549
      9 C6         -1.9631   -1.0609    0.0531 C.ar      1 <0>         0.1585
     10 C7         -1.8692    1.3532    0.0344 C.ar      1 <0>        -0.0163
     11 C8         -2.6047    0.1721   -0.0637 C.ar      1 <0>         0.1582
     12 H1          1.9356    0.8792    1.1933 H         1 <0>         0.0325
     13 H2          1.8658   -0.8673    1.2051 H         1 <0>         0.0325
     14 H3          2.1999    0.8670   -1.3194 H         1 <0>         0.0425
     15 H4          2.1048   -0.8907   -1.3234 H         1 <0>         0.0425
     16 H5         -0.0912   -2.0770    0.3565 H         1 <0>         0.0658
     17 H6          0.0702    2.2286    0.3222 H         1 <0>         0.0621
     18 H7         -2.3564    2.3206   -0.0553 H         1 <0>         0.0655
     19 H8          4.0549   -0.9353    0.0734 H         1 <0>         0.1182
     20 H9          4.1444    0.6889    0.0794 H         1 <0>         0.1182
     21 H10        -3.6062   -1.9979   -0.1881 H         1 <0>         0.2923
     22 H11        -4.2172    1.1693   -0.3280 H         1 <0>         0.2923
@<TRIPOS>BOND
     1    1    9 1
     2    1   21 1
     3    2   11 1
     4    2   22 1
     5    3    6 1
     6    3   19 1
     7    3   20 1
     8    4    5 1
     9    4    6 1
    10    4   12 1
    11    4   13 1
    12    5    7 ar
    13    5    8 ar
    14    6   14 1
    15    6   15 1
    16    7    9 ar
    17    7   16 1
    18    8   10 ar
    19    8   17 1
    20    9   11 ar
    21   10   11 ar
    22   10   18 1
