@<TRIPOS>MOLECULE
DB00675
   57    59     0     0     0
SMALL
USER_CHARGES

@<TRIPOS>ATOM
      1 O1         -3.0492   -1.3765   -1.0046 O.3       1 <0>        -0.4907
      2 N1         -6.2271   -0.1588    0.4110 N.3       1 <0>        -0.3051
      3 C1          2.4019   -0.3205   -0.2390 C.2       1 <0>        -0.0070
      4 C2          2.8546    0.9710   -0.1036 C.2       1 <0>        -0.0322
      5 C3          0.9879   -0.5954   -0.4377 C.ar      1 <0>        -0.0168
      6 C4          4.3053    1.3476    0.1587 C.3       1 <0>        -0.0294
      7 C5          3.3954   -1.4436   -0.1819 C.ar      1 <0>        -0.0170
      8 C6          1.9447    2.1433   -0.1470 C.ar      1 <0>        -0.0213
      9 C7          0.4627   -0.6511   -1.7288 C.ar      1 <0>        -0.0506
     10 C8          0.1562   -0.8022    0.6630 C.ar      1 <0>        -0.0506
     11 C9          4.6322    1.4298    1.6449 C.3       1 <0>        -0.0612
     12 C10        -1.7162   -1.1190   -0.8173 C.ar      1 <0>         0.1206
     13 C11        -0.8939   -0.9136   -1.9192 C.ar      1 <0>        -0.0194
     14 C12        -1.2006   -1.0651    0.4724 C.ar      1 <0>        -0.0194
     15 C13         3.9803   -1.8561   -1.3531 C.ar      1 <0>        -0.0540
     16 C14         3.6731   -2.0064    1.0386 C.ar      1 <0>        -0.0540
     17 C15         1.3850    2.5977    1.0298 C.ar      1 <0>        -0.0543
     18 C16         1.6863    2.7428   -1.3630 C.ar      1 <0>        -0.0543
     19 C17        -5.2748   -0.5941   -0.6102 C.3       1 <0>         0.0325
     20 C18        -3.9356   -0.9438    0.0190 C.3       1 <0>         0.1022
     21 C19         4.9036   -2.9002   -1.3000 C.ar      1 <0>        -0.0612
     22 C20         4.5967   -3.0503    1.0918 C.ar      1 <0>        -0.0612
     23 C21         0.5300    3.6991    0.9888 C.ar      1 <0>        -0.0612
     24 C22         0.8313    3.8444   -1.4039 C.ar      1 <0>        -0.0612
     25 C23         5.2120   -3.4972   -0.0775 C.ar      1 <0>        -0.0617
     26 C24         0.2534    4.3225   -0.2281 C.ar      1 <0>        -0.0617
     27 C25        -7.5077    0.1927   -0.2011 C.3       1 <0>        -0.0129
     28 C26        -6.4111   -1.2043    1.4168 C.3       1 <0>        -0.0129
     29 H1          4.5363    2.3114   -0.3138 H         1 <0>         0.0311
     30 H2          4.9895    0.6366   -0.3168 H         1 <0>         0.0311
     31 H3          1.0963   -0.4914   -2.5981 H         1 <0>         0.0625
     32 H4          0.5504   -0.7678    1.6759 H         1 <0>         0.0625
     33 H5          4.1008    2.2570    2.1255 H         1 <0>         0.0233
     34 H6          5.7040    1.6101    1.7791 H         1 <0>         0.0233
     35 H7          4.3796    0.5100    2.1780 H         1 <0>         0.0233
     36 H8         -1.2991   -0.9554   -2.9262 H         1 <0>         0.0654
     37 H9         -1.8059   -1.2496    1.3545 H         1 <0>         0.0654
     38 H10         3.7475   -1.3960   -2.3087 H         1 <0>         0.0624
     39 H11         3.1951   -1.6696    1.9535 H         1 <0>         0.0624
     40 H12        -5.6520   -1.4559   -1.1775 H         1 <0>         0.0460
     41 H13        -5.1158    0.2061   -1.3447 H         1 <0>         0.0460
     42 H14         1.5865    2.1175    1.9831 H         1 <0>         0.0624
     43 H15         2.1322    2.3791   -2.2845 H         1 <0>         0.0624
     44 H16        -4.0162   -1.7727    0.7284 H         1 <0>         0.0709
     45 H17        -3.5604   -0.0499    0.5354 H         1 <0>         0.0709
     46 H18         5.3830   -3.2481   -2.2104 H         1 <0>         0.0618
     47 H19         4.8358   -3.5161    2.0433 H         1 <0>         0.0618
     48 H20         0.0782    4.0703    1.9040 H         1 <0>         0.0618
     49 H21         0.6158    4.3295   -2.3514 H         1 <0>         0.0618
     50 H22         5.9310   -4.3103   -0.0363 H         1 <0>         0.0618
     51 H23        -0.4127    5.1797   -0.2599 H         1 <0>         0.0618
     52 H24        -7.3758    0.9935   -0.9373 H         1 <0>         0.0391
     53 H25        -7.9762   -0.6624   -0.7018 H         1 <0>         0.0391
     54 H26        -8.2043    0.5749    0.5535 H         1 <0>         0.0391
     55 H27        -7.2422   -0.9473    2.0854 H         1 <0>         0.0391
     56 H28        -6.6357   -2.1809    0.9728 H         1 <0>         0.0391
     57 H29        -5.5423   -1.2950    2.0761 H         1 <0>         0.0391
@<TRIPOS>BOND
     1    1   12 1
     2    1   20 1
     3    2   19 1
     4    2   27 1
     5    2   28 1
     6    3    4 2
     7    3    5 1
     8    3    7 1
     9    4    6 1
    10    4    8 1
    11    5    9 ar
    12    5   10 ar
    13    6   11 1
    14    6   29 1
    15    6   30 1
    16    7   15 ar
    17    7   16 ar
    18    8   17 ar
    19    8   18 ar
    20    9   13 ar
    21    9   31 1
    22   10   14 ar
    23   10   32 1
    24   11   33 1
    25   11   34 1
    26   11   35 1
    27   12   13 ar
    28   12   14 ar
    29   13   36 1
    30   14   37 1
    31   15   21 ar
    32   15   38 1
    33   16   22 ar
    34   16   39 1
    35   17   23 ar
    36   17   42 1
    37   18   24 ar
    38   18   43 1
    39   19   20 1
    40   19   40 1
    41   19   41 1
    42   20   44 1
    43   20   45 1
    44   21   25 ar
    45   21   46 1
    46   22   25 ar
    47   22   47 1
    48   23   26 ar
    49   23   48 1
    50   24   26 ar
    51   24   49 1
    52   25   50 1
    53   26   51 1
    54   27   52 1
    55   27   53 1
    56   27   54 1
    57   28   55 1
    58   28   56 1
    59   28   57 1
