@<TRIPOS>MOLECULE
DB00652
   48    50     0     0     0
SMALL
USER_CHARGES

@<TRIPOS>ATOM
      1 O1         -4.2296   -3.1226   -1.4993 O.3       1 <0>        -0.5068
      2 N1          1.0403    1.0431    0.3891 N.3       1 <0>        -0.2952
      3 C1         -1.6587    1.0486   -0.7613 C.3       1 <0>        -0.0015
      4 C2         -1.2506    1.9234    0.4639 C.3       1 <0>        -0.0185
      5 C3         -0.1546    1.1712    1.2507 C.3       1 <0>         0.0181
      6 C4         -0.3859    0.8644   -1.6345 C.3       1 <0>        -0.0304
      7 C5         -0.7205   -0.1483    1.8188 C.3       1 <0>        -0.0114
      8 C6         -2.1305   -0.3430   -0.3105 C.ar      1 <0>        -0.0344
      9 C7          0.8105    0.3051   -0.8536 C.3       1 <0>         0.0003
     10 C8         -1.6547   -0.9000    0.8979 C.ar      1 <0>        -0.0419
     11 C9         -2.7168    1.7976   -1.6014 C.3       1 <0>        -0.0552
     12 C10        -2.4241    2.3470    1.3622 C.3       1 <0>        -0.0602
     13 C11         2.2150    0.5416    1.0950 C.3       1 <0>         0.0176
     14 C12        -2.9899   -1.1201   -1.1087 C.ar      1 <0>        -0.0162
     15 C13        -2.0745   -2.1824    1.2914 C.ar      1 <0>        -0.0548
     16 C14        -3.3935   -2.3955   -0.7085 C.ar      1 <0>         0.1172
     17 C15        -2.9393   -2.9251    0.4928 C.ar      1 <0>        -0.0199
     18 C16         3.4535    0.6706    0.2576 C.2       1 <0>        -0.0713
     19 C17         4.2803   -0.3045   -0.1667 C.2       1 <0>        -0.0784
     20 C18         5.5096   -0.1046   -1.0071 C.3       1 <0>        -0.0440
     21 C19         4.0098   -1.7410    0.1977 C.3       1 <0>        -0.0440
     22 H1         -0.8115    2.8621    0.0916 H         1 <0>         0.0322
     23 H2          0.1377    1.8007    2.1024 H         1 <0>         0.0469
     24 H3         -0.0971    1.8361   -2.0593 H         1 <0>         0.0286
     25 H4         -0.5922    0.2049   -2.4877 H         1 <0>         0.0286
     26 H5         -1.2912    0.0920    2.7265 H         1 <0>         0.0328
     27 H6          0.0840   -0.8155    2.1443 H         1 <0>         0.0328
     28 H7          0.6695   -0.7653   -0.6601 H         1 <0>         0.0427
     29 H8          1.6717    0.3833   -1.5274 H         1 <0>         0.0427
     30 H9         -2.4160    2.8375   -1.7750 H         1 <0>         0.0238
     31 H10        -2.8518    1.3427   -2.5891 H         1 <0>         0.0238
     32 H11        -3.6951    1.8080   -1.1080 H         1 <0>         0.0238
     33 H12        -2.0555    2.8665    2.2535 H         1 <0>         0.0233
     34 H13        -3.0843    3.0441    0.8360 H         1 <0>         0.0233
     35 H14        -3.0335    1.5019    1.6943 H         1 <0>         0.0233
     36 H15         2.3841    1.1536    1.9907 H         1 <0>         0.0470
     37 H16         2.0671   -0.4782    1.4555 H         1 <0>         0.0470
     38 H17        -3.3518   -0.7457   -2.0623 H         1 <0>         0.0657
     39 H18        -1.7226   -2.6086    2.2280 H         1 <0>         0.0622
     40 H19        -3.2464   -3.9155    0.8173 H         1 <0>         0.0654
     41 H20         3.7040    1.6916   -0.0302 H         1 <0>         0.0584
     42 H21        -4.4038   -3.9786   -1.0714 H         1 <0>         0.2921
     43 H22         6.3936   -0.4876   -0.4870 H         1 <0>         0.0274
     44 H23         5.6807    0.9554   -1.2219 H         1 <0>         0.0274
     45 H24         5.4096   -0.6276   -1.9636 H         1 <0>         0.0274
     46 H25         4.5609   -2.0111    1.1041 H         1 <0>         0.0274
     47 H26         4.3436   -2.4048   -0.6083 H         1 <0>         0.0274
     48 H27         2.9507   -1.9674    0.3414 H         1 <0>         0.0274
@<TRIPOS>BOND
     1    1   16 1
     2    1   42 1
     3    2    5 1
     4    2    9 1
     5    2   13 1
     6    3    4 1
     7    3    6 1
     8    3    8 1
     9    3   11 1
    10    4    5 1
    11    4   12 1
    12    4   22 1
    13    5    7 1
    14    5   23 1
    15    6    9 1
    16    6   24 1
    17    6   25 1
    18    7   10 1
    19    7   26 1
    20    7   27 1
    21    8   10 ar
    22    8   14 ar
    23    9   28 1
    24    9   29 1
    25   10   15 ar
    26   11   30 1
    27   11   31 1
    28   11   32 1
    29   12   33 1
    30   12   34 1
    31   12   35 1
    32   13   18 1
    33   13   36 1
    34   13   37 1
    35   14   16 ar
    36   14   38 1
    37   15   17 ar
    38   15   39 1
    39   16   17 ar
    40   17   40 1
    41   18   19 2
    42   18   41 1
    43   19   20 1
    44   19   21 1
    45   20   43 1
    46   20   44 1
    47   20   45 1
    48   21   46 1
    49   21   47 1
    50   21   48 1
