@<TRIPOS>MOLECULE
DB00422
   36    37     0     0     0
SMALL
USER_CHARGES

@<TRIPOS>ATOM
      1 O1         -0.8094    2.2272    0.5478 O.3       1 <0>        -0.4675
      2 O2         -0.5488    2.6299   -1.7049 O.2       1 <0>        -0.2501
      3 N1          1.0609   -1.5144   -0.2296 N.3       1 <0>        -0.3121
      4 C1          0.8564   -0.0706   -0.0569 C.3       1 <0>         0.0246
      5 C2          2.0821    0.7149   -0.5431 C.3       1 <0>        -0.0364
      6 C3         -0.3918    0.3528   -0.8290 C.3       1 <0>         0.0966
      7 C4          3.3534    0.2473    0.1604 C.3       1 <0>        -0.0505
      8 C5          3.5042   -1.2656    0.0444 C.3       1 <0>        -0.0404
      9 C6          2.2374   -1.9843    0.5024 C.3       1 <0>        -0.0038
     10 C7         -1.6371   -0.3943   -0.3756 C.ar      1 <0>        -0.0322
     11 C8         -0.5791    1.8640   -0.7501 C.2       1 <0>         0.3158
     12 C9         -1.7662   -0.7298    0.9568 C.ar      1 <0>        -0.0577
     13 C10        -2.6007   -0.7146   -1.3104 C.ar      1 <0>        -0.0577
     14 C11        -2.9078   -1.4151    1.3724 C.ar      1 <0>        -0.0615
     15 C12        -3.7424   -1.3997   -0.8948 C.ar      1 <0>        -0.0615
     16 C13        -3.8960   -1.7499    0.4466 C.ar      1 <0>        -0.0617
     17 C14        -1.0289    3.6241    0.7693 C.3       1 <0>         0.0817
     18 H1          0.7571    0.1542    1.0119 H         1 <0>         0.0472
     19 H2          1.9671    1.7880   -0.3540 H         1 <0>         0.0281
     20 H3          2.2061    0.5928   -1.6275 H         1 <0>         0.0281
     21 H4         -0.2292    0.1247   -1.8936 H         1 <0>         0.0478
     22 H5          3.3117    0.5310    1.2191 H         1 <0>         0.0266
     23 H6          4.2276    0.7460   -0.2723 H         1 <0>         0.0266
     24 H7          3.7229   -1.5320   -0.9976 H         1 <0>         0.0277
     25 H8          4.3576   -1.5993    0.6451 H         1 <0>         0.0277
     26 H9          1.1813   -1.7213   -1.2214 H         1 <0>         0.1222
     27 H10         2.3494   -3.0618    0.3396 H         1 <0>         0.0424
     28 H11         2.0864   -1.8441    1.5796 H         1 <0>         0.0424
     29 H12        -1.0437   -0.4660    1.7194 H         1 <0>         0.0621
     30 H13        -2.4907   -0.4438   -2.3562 H         1 <0>         0.0621
     31 H14        -3.0315   -1.6818    2.4180 H         1 <0>         0.0618
     32 H15        -4.5123   -1.6597   -1.6153 H         1 <0>         0.0618
     33 H16        -4.7858   -2.2818    0.7706 H         1 <0>         0.0618
     34 H17        -1.9139    3.9599    0.2207 H         1 <0>         0.0661
     35 H18        -0.1464    4.1976    0.4700 H         1 <0>         0.0661
     36 H19        -1.2000    3.7756    1.8384 H         1 <0>         0.0661
@<TRIPOS>BOND
     1    1   11 1
     2    1   17 1
     3    2   11 2
     4    3    4 1
     5    3    9 1
     6    3   26 1
     7    4    5 1
     8    4    6 1
     9    4   18 1
    10    5    7 1
    11    5   19 1
    12    5   20 1
    13    6   10 1
    14    6   11 1
    15    6   21 1
    16    7    8 1
    17    7   22 1
    18    7   23 1
    19    8    9 1
    20    8   24 1
    21    8   25 1
    22    9   27 1
    23    9   28 1
    24   10   12 ar
    25   10   13 ar
    26   12   14 ar
    27   12   29 1
    28   13   15 ar
    29   13   30 1
    30   14   16 ar
    31   14   31 1
    32   15   16 ar
    33   15   32 1
    34   16   33 1
    35   17   34 1
    36   17   35 1
    37   17   36 1
