@<TRIPOS>MOLECULE
DB00165
   23    23     0     0     0
SMALL
USER_CHARGES

@<TRIPOS>ATOM
      1 O1          1.5886   -1.8413    0.3046 O.3       1 <0>        -0.5046
      2 O2         -1.4982   -2.2561   -1.0463 O.3       1 <0>        -0.3903
      3 O3         -2.8769    1.2822    1.0748 O.3       1 <0>        -0.3904
      4 N1          1.3014    1.7469   -0.2846 N.ar      1 <0>        -0.2562
      5 C1         -0.3601   -0.4765    0.0465 C.ar      1 <0>         0.0278
      6 C2         -0.9121    0.7816   -0.1681 C.ar      1 <0>         0.0047
      7 C3          1.0216   -0.6243    0.0957 C.ar      1 <0>         0.1434
      8 C4          1.8013    0.5085   -0.0741 C.ar      1 <0>         0.0798
      9 C5         -1.2459   -1.6678    0.2226 C.3       1 <0>         0.0731
     10 C6         -2.3844    0.9984   -0.2297 C.3       1 <0>         0.0711
     11 C7         -0.0459    1.8513   -0.3261 C.ar      1 <0>         0.0338
     12 C8          3.2909    0.4060   -0.0307 C.3       1 <0>        -0.0188
     13 H1         -0.7713   -2.4203    0.8627 H         1 <0>         0.0608
     14 H2         -2.1954   -1.4241    0.7089 H         1 <0>         0.0608
     15 H3         -2.6195    1.8561   -0.8707 H         1 <0>         0.0608
     16 H4         -2.9339    0.1521   -0.6512 H         1 <0>         0.0608
     17 H5         -0.4145    2.8586   -0.4943 H         1 <0>         0.0833
     18 H6          3.6586   -0.2526   -0.8241 H         1 <0>         0.0294
     19 H7          3.7513    1.3886   -0.1825 H         1 <0>         0.0294
     20 H8          3.6267    0.0355    0.9432 H         1 <0>         0.0294
     21 H9          2.5565   -1.7833    0.3133 H         1 <0>         0.2922
     22 H10        -2.0665   -3.0304   -0.8941 H         1 <0>         0.2098
     23 H11        -2.2722    1.9109    1.5041 H         1 <0>         0.2098
@<TRIPOS>BOND
     1    1    7 1
     2    1   21 1
     3    2    9 1
     4    2   22 1
     5    3   10 1
     6    3   23 1
     7    4    8 ar
     8    4   11 ar
     9    5    6 ar
    10    5    7 ar
    11    5    9 1
    12    6   10 1
    13    6   11 ar
    14    7    8 ar
    15    8   12 1
    16    9   13 1
    17    9   14 1
    18   10   15 1
    19   10   16 1
    20   11   17 1
    21   12   18 1
    22   12   19 1
    23   12   20 1
