@<TRIPOS>MOLECULE
DB00677
   25    24     0     0     0
SMALL
USER_CHARGES

@<TRIPOS>ATOM
      1 P1         -0.0191    0.4431   -1.4286 P.3       1 <0>         0.5158
      2 F1         -0.0047    1.7799   -0.6033 F         1 <0>        -0.1326
      3 O1          0.8811   -0.5757   -0.5529 O.3       1 <0>        -0.2806
      4 O2         -1.5306   -0.1081   -1.2679 O.3       1 <0>        -0.2806
      5 O3          0.4328    0.6639   -2.8419 O.2       1 <0>        -0.2226
      6 C1          2.2472   -0.2580   -0.3552 C.3       1 <0>         0.0647
      7 C2         -2.0430   -0.3460    0.0315 C.3       1 <0>         0.0647
      8 C3          2.3515    1.0803    0.3604 C.3       1 <0>        -0.0384
      9 C4          2.9123   -1.3758    0.4336 C.3       1 <0>        -0.0384
     10 C5         -2.0215    0.9525    0.8236 C.3       1 <0>        -0.0384
     11 C6         -3.4479   -0.9181   -0.0812 C.3       1 <0>        -0.0384
     12 H1          2.7356   -0.1888   -1.3340 H         1 <0>         0.0596
     13 H2         -1.4144   -1.0912    0.5317 H         1 <0>         0.0596
     14 H3          3.3601    1.2311    0.7603 H         1 <0>         0.0255
     15 H4          2.1685    1.9122   -0.3260 H         1 <0>         0.0255
     16 H5          1.6372    1.1538    1.1871 H         1 <0>         0.0255
     17 H6          3.9785   -1.1806    0.5832 H         1 <0>         0.0255
     18 H7          2.8021   -2.3306   -0.0919 H         1 <0>         0.0255
     19 H8          2.4361   -1.4990    1.4126 H         1 <0>         0.0255
     20 H9         -2.6747    0.8851    1.7005 H         1 <0>         0.0255
     21 H10        -1.0205    1.1636    1.2106 H         1 <0>         0.0255
     22 H11        -2.3451    1.8046    0.2168 H         1 <0>         0.0255
     23 H12        -3.8688   -1.1433    0.9035 H         1 <0>         0.0255
     24 H13        -3.4384   -1.8380   -0.6757 H         1 <0>         0.0255
     25 H14        -4.1142   -0.2173   -0.5965 H         1 <0>         0.0255
@<TRIPOS>BOND
     1    1    2 1
     2    1    3 1
     3    1    4 1
     4    1    5 2
     5    3    6 1
     6    4    7 1
     7    6    8 1
     8    6    9 1
     9    6   12 1
    10    7   10 1
    11    7   11 1
    12    7   13 1
    13    8   14 1
    14    8   15 1
    15    8   16 1
    16    9   17 1
    17    9   18 1
    18    9   19 1
    19   10   20 1
    20   10   21 1
    21   10   22 1
    22   11   23 1
    23   11   24 1
    24   11   25 1
