@<TRIPOS>MOLECULE
DB00446
   32    32     0     0     0
SMALL
USER_CHARGES

@<TRIPOS>ATOM
      1 Cl1        -5.4822   -2.1124   -0.5787 Cl        1 <0>        -0.0945
      2 Cl2        -5.9849    0.3453    0.9173 Cl        1 <0>        -0.0945
      3 O1         -0.5170   -1.0634   -1.8375 O.3       1 <0>        -0.3853
      4 O2         -1.1493    2.4329    0.5889 O.3       1 <0>        -0.3931
      5 O3         -3.3952   -1.2360    1.5363 O.2       1 <0>        -0.2729
      6 O4          6.1045    0.4425    0.0372 O.3       1 <0>        -0.5760
      7 O5          5.6754   -1.4317    1.0966 O.2       1 <0>         0.0414
      8 N1         -2.5358    0.0098   -0.2198 N.am      1 <0>        -0.3052
      9 N2          5.3024   -0.4442    0.4183 N.pl3     1 <0>         0.0796
     10 C1         -1.1610    0.0125    0.2429 C.3       1 <0>         0.0762
     11 C2         -0.2063    0.0321   -0.9702 C.3       1 <0>         0.1006
     12 C3          1.2547   -0.0943   -0.6028 C.ar      1 <0>        -0.0169
     13 C4         -0.9560    1.1745    1.2220 C.3       1 <0>         0.0653
     14 C5          2.1449    0.8801   -1.0210 C.ar      1 <0>        -0.0497
     15 C6          1.6725   -1.1823    0.1452 C.ar      1 <0>        -0.0497
     16 C7         -3.5463   -0.6245    0.4797 C.2       1 <0>         0.2462
     17 C8          3.4928    0.7635   -0.6814 C.ar      1 <0>         0.0159
     18 C9          3.0204   -1.2991    0.4849 C.ar      1 <0>         0.0159
     19 C10         3.9306   -0.3259    0.0717 C.ar      1 <0>         0.2732
     20 C11        -4.8897   -0.4875   -0.1978 C.3       1 <0>         0.1830
     21 H1         -1.0231   -0.9226    0.7994 H         1 <0>         0.0550
     22 H2         -0.3717    0.9450   -1.5564 H         1 <0>         0.0663
     23 H3          0.0532    1.1553    1.6453 H         1 <0>         0.0576
     24 H4         -1.6679    1.1062    2.0522 H         1 <0>         0.0576
     25 H5         -2.7622    0.5564   -1.0455 H         1 <0>         0.1492
     26 H6          1.8155    1.7333   -1.6068 H         1 <0>         0.0623
     27 H7          0.9816   -1.9564    0.4648 H         1 <0>         0.0623
     28 H8         -1.4579   -0.9920   -2.0723 H         1 <0>         0.2103
     29 H9          4.1731    1.5407   -1.0203 H         1 <0>         0.0685
     30 H10         3.3260   -2.1626    1.0701 H         1 <0>         0.0685
     31 H11        -1.0028    3.1175    1.2637 H         1 <0>         0.2095
     32 H12        -4.8383    0.0873   -1.1259 H         1 <0>         0.0732
@<TRIPOS>BOND
     1    1   20 1
     2    2   20 1
     3    3   11 1
     4    3   28 1
     5    4   13 1
     6    4   31 1
     7    5   16 2
     8    6    9 1
     9    7    9 2
    10    8   10 1
    11    8   16 am
    12    8   25 1
    13    9   19 1
    14   10   11 1
    15   10   13 1
    16   10   21 1
    17   11   12 1
    18   11   22 1
    19   12   14 ar
    20   12   15 ar
    21   13   23 1
    22   13   24 1
    23   14   17 ar
    24   14   26 1
    25   15   18 ar
    26   15   27 1
    27   16   20 1
    28   17   19 ar
    29   17   29 1
    30   18   19 ar
    31   18   30 1
    32   20   32 1
