@<TRIPOS>MOLECULE
DB00695
   32    33     0     0     0
SMALL
USER_CHARGES

@<TRIPOS>ATOM
      1 Cl1         2.7859    3.0742   -0.3038 Cl        1 <0>        -0.0815
      2 S1          4.7067    0.4736   -0.3942 S.o2      1 <0>         0.0574
      3 O1         -3.8210   -0.1237    1.1673 O.3       1 <0>        -0.4662
      4 O2          5.2184   -0.7530   -0.9843 O.2       1 <0>        -0.1532
      5 O3          5.0393    1.7601   -0.9853 O.2       1 <0>        -0.1532
      6 O4          1.2303   -3.3230   -0.8175 O.3       1 <0>        -0.4771
      7 O5         -0.5918   -2.7472    0.4133 O.2       1 <0>        -0.2451
      8 N1         -1.2124   -0.0827   -0.0709 N.pl3     1 <0>        -0.3360
      9 N2          5.1152    0.5052    1.2633 N.pl3     1 <0>        -0.2035
     10 C1          0.1920    0.0475   -0.1478 C.ar      1 <0>         0.0431
     11 C2          2.9614    0.3470   -0.2992 C.ar      1 <0>         0.1241
     12 C3          1.0144   -1.0785   -0.1865 C.ar      1 <0>         0.0815
     13 C4          2.3990   -0.9288   -0.2623 C.ar      1 <0>        -0.0182
     14 C5         -2.0934    1.0417   -0.0289 C.3       1 <0>         0.0673
     15 C6          0.7545    1.3235   -0.1848 C.ar      1 <0>        -0.0198
     16 C7          2.1393    1.4733   -0.2605 C.ar      1 <0>         0.0690
     17 C8         -3.5344    0.6211    0.0871 C.2       1 <0>         0.1217
     18 C9          0.4576   -2.4250   -0.1493 C.2       1 <0>         0.3387
     19 C10        -4.6097    0.8520   -0.6974 C.2       1 <0>        -0.0192
     20 C11        -5.6821    0.1901   -0.0534 C.2       1 <0>        -0.0236
     21 C12        -5.1510   -0.3879    1.0761 C.2       1 <0>         0.0921
     22 H1          3.0444   -1.8033   -0.2676 H         1 <0>         0.0646
     23 H2         -1.9859    1.6483   -0.9368 H         1 <0>         0.0542
     24 H3         -1.8711    1.6792    0.8361 H         1 <0>         0.0542
     25 H4         -1.6027   -1.0179   -0.0646 H         1 <0>         0.1465
     26 H5          0.1406    2.2196   -0.1573 H         1 <0>         0.0651
     27 H6         -4.6434    1.4186   -1.6167 H         1 <0>         0.0652
     28 H7          5.5763   -0.3241    1.6572 H         1 <0>         0.1442
     29 H8          5.4520    1.3932    1.6551 H         1 <0>         0.1442
     30 H9         -6.7132    0.1404   -0.3725 H         1 <0>         0.0649
     31 H10        -5.5641   -0.9871    1.8743 H         1 <0>         0.1029
     32 H11         0.8488   -4.2264   -0.7881 H         1 <0>         0.2954
@<TRIPOS>BOND
     1    1   16 1
     2    2    4 2
     3    2    5 2
     4    2    9 1
     5    2   11 1
     6    3   17 1
     7    3   21 1
     8    6   18 1
     9    6   32 1
    10    7   18 2
    11    8   10 1
    12    8   14 1
    13    8   25 1
    14    9   28 1
    15    9   29 1
    16   10   12 ar
    17   10   15 ar
    18   11   13 ar
    19   11   16 ar
    20   12   13 ar
    21   12   18 1
    22   13   22 1
    23   14   17 1
    24   14   23 1
    25   14   24 1
    26   15   16 ar
    27   15   26 1
    28   17   19 2
    29   19   20 1
    30   19   27 1
    31   20   21 2
    32   20   30 1
    33   21   31 1
