@<TRIPOS>MOLECULE
DB00735
   43    45     0     0     0
SMALL
USER_CHARGES

@<TRIPOS>ATOM
      1 N1         -0.6823    1.7566    0.9271 N.3       1 <0>        -0.2975
      2 C1         -0.8232    1.1113   -0.3769 C.3       1 <0>         0.0246
      3 C2         -2.1785    0.5024   -0.5626 C.ar      1 <0>        -0.0257
      4 C3         -2.4565   -0.8233   -0.1921 C.ar      1 <0>        -0.0135
      5 C4         -3.7584   -1.3402   -0.3944 C.ar      1 <0>        -0.0176
      6 C5          0.6710    2.2862    1.0927 C.3       1 <0>         0.0174
      7 C6         -3.1700    1.3073   -1.1245 C.ar      1 <0>        -0.0567
      8 C7         -1.6703    2.8244    1.0792 C.3       1 <0>        -0.0121
      9 C8         -1.4708   -1.6477    0.3747 C.ar      1 <0>        -0.0537
     10 C9         -4.7440   -0.5158   -0.9612 C.ar      1 <0>        -0.0540
     11 C10        -4.4503    0.7991   -1.3234 C.ar      1 <0>        -0.0609
     12 C11        -4.0362   -2.6659   -0.0239 C.ar      1 <0>        -0.0540
     13 C12         1.7054    1.2104    0.9413 C.2       1 <0>        -0.0695
     14 C13        -1.7644   -2.9627    0.7369 C.ar      1 <0>        -0.0612
     15 C14        -3.0446   -3.4708    0.5379 C.ar      1 <0>        -0.0612
     16 C15         2.6699    1.2427    0.0080 C.2       1 <0>        -0.0573
     17 C16         3.7156    0.2212   -0.1693 C.ar      1 <0>        -0.0253
     18 C17         3.5238   -1.0461    0.3582 C.ar      1 <0>        -0.0546
     19 C18         4.8725    0.5458   -0.8601 C.ar      1 <0>        -0.0546
     20 C19         4.5144   -2.0137    0.1907 C.ar      1 <0>        -0.0612
     21 C20         5.8631   -0.4220   -1.0276 C.ar      1 <0>        -0.0612
     22 C21         5.6840   -1.7016   -0.5022 C.ar      1 <0>        -0.0617
     23 H1         -0.0638    0.3490   -0.5748 H         1 <0>         0.0476
     24 H2         -0.6527    1.8462   -1.1794 H         1 <0>         0.0476
     25 H3          0.7807    2.7033    2.1017 H         1 <0>         0.0470
     26 H4          0.8577    3.1078    0.3878 H         1 <0>         0.0470
     27 H5         -2.9625    2.3291   -1.4313 H         1 <0>         0.0621
     28 H6         -1.6503    3.5444    0.2531 H         1 <0>         0.0391
     29 H7         -1.4737    3.3867    2.0008 H         1 <0>         0.0391
     30 H8         -2.6842    2.4345    1.2101 H         1 <0>         0.0391
     31 H9         -0.4595   -1.3067    0.5725 H         1 <0>         0.0624
     32 H10        -5.7514   -0.8922   -1.1266 H         1 <0>         0.0624
     33 H11        -5.2208    1.4248   -1.7644 H         1 <0>         0.0618
     34 H12        -5.0301   -3.0841   -0.1699 H         1 <0>         0.0624
     35 H13         1.6471    0.4065    1.6696 H         1 <0>         0.0585
     36 H14        -0.9944   -3.5889    1.1783 H         1 <0>         0.0618
     37 H15        -3.2730   -4.4941    0.8211 H         1 <0>         0.0618
     38 H16         2.7108    2.0839   -0.6805 H         1 <0>         0.0621
     39 H17         2.6208   -1.3398    0.8839 H         1 <0>         0.0623
     40 H18         5.0274    1.5386   -1.2742 H         1 <0>         0.0623
     41 H19         4.3732   -3.0119    0.5949 H         1 <0>         0.0618
     42 H20         6.7740   -0.1792   -1.5671 H         1 <0>         0.0618
     43 H21         6.4547   -2.4554   -0.6338 H         1 <0>         0.0618
@<TRIPOS>BOND
     1    1    2 1
     2    1    6 1
     3    1    8 1
     4    2    3 1
     5    2   23 1
     6    2   24 1
     7    3    4 ar
     8    3    7 ar
     9    4    5 ar
    10    4    9 ar
    11    5   10 ar
    12    5   12 ar
    13    6   13 1
    14    6   25 1
    15    6   26 1
    16    7   11 ar
    17    7   27 1
    18    8   28 1
    19    8   29 1
    20    8   30 1
    21    9   14 ar
    22    9   31 1
    23   10   11 ar
    24   10   32 1
    25   11   33 1
    26   12   15 ar
    27   12   34 1
    28   13   16 2
    29   13   35 1
    30   14   15 ar
    31   14   36 1
    32   15   37 1
    33   16   17 1
    34   16   38 1
    35   17   18 ar
    36   17   19 ar
    37   18   20 ar
    38   18   39 1
    39   19   21 ar
    40   19   40 1
    41   20   22 ar
    42   20   41 1
    43   21   22 ar
    44   21   42 1
    45   22   43 1
