@<TRIPOS>MOLECULE
DB00542
   59    61     0     0     0
SMALL
USER_CHARGES

@<TRIPOS>ATOM
      1 O1         -0.8242    2.7429   -0.0672 O.2       1 <0>        -0.2735
      2 O2          0.7922   -2.1285   -0.0272 O.3       1 <0>        -0.4638
      3 O3          0.5848   -1.7889    2.2434 O.2       1 <0>        -0.2491
      4 O4         -1.6485    0.2876   -2.6815 O.3       1 <0>        -0.4795
      5 O5         -2.1324    1.8638   -4.2403 O.2       1 <0>        -0.2492
      6 N1          0.0341    0.8679    1.6495 N.3       1 <0>        -0.2935
      7 N2         -2.7402    1.5685   -0.6737 N.am      1 <0>        -0.2592
      8 C1         -1.3769    0.8128    1.2619 C.3       1 <0>         0.0862
      9 C2         -2.2598    1.0867    2.4753 C.3       1 <0>        -0.0249
     10 C3         -3.7081    1.3957    2.1164 C.3       1 <0>        -0.0241
     11 C4          0.8513    0.1024    0.7219 C.3       1 <0>         0.1067
     12 C5         -1.6169    1.8196    0.1383 C.2       1 <0>         0.2373
     13 C6         -4.2458    0.5222    1.0118 C.ar      1 <0>        -0.0259
     14 C7         -3.8051    0.6664   -0.3239 C.ar      1 <0>         0.0401
     15 C8          2.3273    0.5282    0.7800 C.3       1 <0>        -0.0232
     16 C9          3.2611   -0.2111   -0.1886 C.3       1 <0>        -0.0258
     17 C10        -2.8267    2.2459   -1.9672 C.3       1 <0>         0.1168
     18 C11         0.7273   -1.3630    1.1044 C.2       1 <0>         0.3243
     19 C12        -5.2723   -0.3894    1.3117 C.ar      1 <0>        -0.0568
     20 C13        -4.4575   -0.0704   -1.3288 C.ar      1 <0>        -0.0400
     21 C14         4.6881    0.2746   -0.1476 C.ar      1 <0>        -0.0473
     22 C15        -5.8804   -1.1348    0.3048 C.ar      1 <0>        -0.0614
     23 C16        -5.4795   -0.9686   -1.0149 C.ar      1 <0>        -0.0600
     24 C17        -2.1769    1.4675   -3.0820 C.2       1 <0>         0.3227
     25 C18         5.0968    1.3098   -0.9886 C.ar      1 <0>        -0.0586
     26 C19         5.5993   -0.3106    0.7317 C.ar      1 <0>        -0.0586
     27 C20         0.6802   -3.5408    0.1753 C.3       1 <0>         0.0897
     28 C21         6.4167    1.7594   -0.9505 C.ar      1 <0>        -0.0615
     29 C22         6.9190    0.1392    0.7698 C.ar      1 <0>        -0.0615
     30 C23         7.3277    1.1743   -0.0713 C.ar      1 <0>        -0.0617
     31 C24         0.7703   -4.2397   -1.1645 C.3       1 <0>        -0.0306
     32 H1         -1.6130   -0.1934    0.8923 H         1 <0>         0.0557
     33 H2         -2.2268    0.2112    3.1376 H         1 <0>         0.0288
     34 H3         -1.8701    1.9296    3.0616 H         1 <0>         0.0288
     35 H4         -4.3242    1.3049    3.0198 H         1 <0>         0.0314
     36 H5         -3.8068    2.4452    1.8087 H         1 <0>         0.0314
     37 H6          0.5024    0.2391   -0.3097 H         1 <0>         0.0576
     38 H7          0.3426    1.8383    1.6981 H         1 <0>         0.1234
     39 H8          2.7070    0.3924    1.8024 H         1 <0>         0.0289
     40 H9          2.3915    1.6053    0.5732 H         1 <0>         0.0289
     41 H10         3.2602   -1.2861    0.0283 H         1 <0>         0.0314
     42 H11         2.8775   -0.1164   -1.2129 H         1 <0>         0.0314
     43 H12        -2.3095    3.2092   -1.9022 H         1 <0>         0.0584
     44 H13        -3.8752    2.4413   -2.2169 H         1 <0>         0.0584
     45 H14        -5.6193   -0.5095    2.3353 H         1 <0>         0.0621
     46 H15        -4.1915    0.0115   -2.3767 H         1 <0>         0.0636
     47 H16        -6.6762   -1.8321    0.5490 H         1 <0>         0.0618
     48 H17        -5.9613   -1.5381   -1.8046 H         1 <0>         0.0618
     49 H18         4.3956    1.7750   -1.6763 H         1 <0>         0.0620
     50 H19         5.2923   -1.1162    1.3935 H         1 <0>         0.0620
     51 H20        -0.2827   -3.7666    0.6467 H         1 <0>         0.0694
     52 H21         1.4933   -3.8815    0.8259 H         1 <0>         0.0694
     53 H22         6.7348    2.5656   -1.6050 H         1 <0>         0.0618
     54 H23         7.6285   -0.3159    1.4548 H         1 <0>         0.0618
     55 H24         8.3552    1.5247   -0.0413 H         1 <0>         0.0618
     56 H25        -0.0257   -3.8952   -1.8329 H         1 <0>         0.0262
     57 H26         1.7207   -4.0077   -1.6565 H         1 <0>         0.0262
     58 H27         0.6886   -5.3237   -1.0467 H         1 <0>         0.0262
     59 H28        -1.2331   -0.2003   -3.4242 H         1 <0>         0.2951
@<TRIPOS>BOND
     1    1   12 2
     2    2   18 1
     3    2   27 1
     4    3   18 2
     5    4   24 1
     6    4   59 1
     7    5   24 2
     8    6    8 1
     9    6   11 1
    10    6   38 1
    11    7   12 am
    12    7   14 1
    13    7   17 1
    14    8    9 1
    15    8   12 1
    16    8   32 1
    17    9   10 1
    18    9   33 1
    19    9   34 1
    20   10   13 1
    21   10   35 1
    22   10   36 1
    23   11   15 1
    24   11   18 1
    25   11   37 1
    26   13   14 ar
    27   13   19 ar
    28   14   20 ar
    29   15   16 1
    30   15   39 1
    31   15   40 1
    32   16   21 1
    33   16   41 1
    34   16   42 1
    35   17   24 1
    36   17   43 1
    37   17   44 1
    38   19   22 ar
    39   19   45 1
    40   20   23 ar
    41   20   46 1
    42   21   25 ar
    43   21   26 ar
    44   22   23 ar
    45   22   47 1
    46   23   48 1
    47   25   28 ar
    48   25   49 1
    49   26   29 ar
    50   26   50 1
    51   27   31 1
    52   27   51 1
    53   27   52 1
    54   28   30 ar
    55   28   53 1
    56   29   30 ar
    57   29   54 1
    58   30   55 1
    59   31   56 1
    60   31   57 1
    61   31   58 1
