@<TRIPOS>MOLECULE
DB00250
   29    30     0     0     0
SMALL
USER_CHARGES

@<TRIPOS>ATOM
      1 S1          0.0011   -0.0003    1.9770 S.o2      1 <0>         0.0251
      2 O1          0.0224   -1.2598    2.7077 O.2       1 <0>        -0.1643
      3 O2         -0.0616    1.2591    2.7073 O.2       1 <0>        -0.1643
      4 N1          4.8283    0.0023   -1.4947 N.pl3     1 <0>        -0.3580
      5 N2         -4.8235   -0.0018   -1.4983 N.pl3     1 <0>        -0.3580
      6 C1          1.4184    0.0007    0.9572 C.ar      1 <0>         0.0937
      7 C2         -1.4371   -0.0010    0.9405 C.ar      1 <0>         0.0937
      8 C3          1.9841    1.2090    0.5499 C.ar      1 <0>        -0.0347
      9 C4         -1.9807   -1.2092    0.5482 C.ar      1 <0>        -0.0347
     10 C5          1.9852   -1.2069    0.5500 C.ar      1 <0>        -0.0347
     11 C6         -1.9818    1.2067    0.5490 C.ar      1 <0>        -0.0347
     12 C7          3.1165    1.2096   -0.2646 C.ar      1 <0>        -0.0392
     13 C8         -3.1125   -1.2095   -0.2672 C.ar      1 <0>        -0.0392
     14 C9          3.1176   -1.2065   -0.2643 C.ar      1 <0>        -0.0392
     15 C10        -3.1136    1.2066   -0.2662 C.ar      1 <0>        -0.0392
     16 C11         3.6832    0.0018   -0.6717 C.ar      1 <0>         0.0246
     17 C12        -3.6790   -0.0017   -0.6743 C.ar      1 <0>         0.0246
     18 H1          1.5553    2.1609    0.8504 H         1 <0>         0.0637
     19 H2         -1.5492   -2.1585    0.8494 H         1 <0>         0.0637
     20 H3          1.5581   -2.1605    0.8474 H         1 <0>         0.0637
     21 H4         -1.5520    2.1578    0.8473 H         1 <0>         0.0637
     22 H5          3.5471    2.1576   -0.5765 H         1 <0>         0.0636
     23 H6         -3.5428   -2.1576   -0.5799 H         1 <0>         0.0636
     24 H7          3.5491   -2.1541   -0.5765 H         1 <0>         0.0636
     25 H8         -3.5447    2.1543   -0.5786 H         1 <0>         0.0636
     26 H9          5.2394    0.8780   -1.7897 H         1 <0>         0.1423
     27 H10         5.2402   -0.8731   -1.7895 H         1 <0>         0.1423
     28 H11        -5.2335   -0.8772   -1.7953 H         1 <0>         0.1423
     29 H12        -5.2341    0.8737   -1.7944 H         1 <0>         0.1423
@<TRIPOS>BOND
     1    1    2 2
     2    1    3 2
     3    1    6 1
     4    1    7 1
     5    4   16 1
     6    4   26 1
     7    4   27 1
     8    5   17 1
     9    5   28 1
    10    5   29 1
    11    6    8 ar
    12    6   10 ar
    13    7    9 ar
    14    7   11 ar
    15    8   12 ar
    16    8   18 1
    17    9   13 ar
    18    9   19 1
    19   10   14 ar
    20   10   20 1
    21   11   15 ar
    22   11   21 1
    23   12   16 ar
    24   12   22 1
    25   13   17 ar
    26   13   23 1
    27   14   16 ar
    28   14   24 1
    29   15   17 ar
    30   15   25 1
