@<TRIPOS>MOLECULE
DB00470
   53    55     0     0     0
SMALL
USER_CHARGES

@<TRIPOS>ATOM
      1 O1          0.8917    1.8483    0.6623 O.3       1 <0>        -0.4855
      2 O2          0.6739   -2.7551   -0.9294 O.3       1 <0>        -0.5063
      3 C1          3.0676    0.7932    0.2584 C.3       1 <0>         0.0091
      4 C2          2.4150   -0.4071   -0.4700 C.3       1 <0>         0.0158
      5 C3          2.2008    2.0644    0.0934 C.3       1 <0>         0.1087
      6 C4          4.5285    0.9185   -0.1952 C.3       1 <0>        -0.0421
      7 C5          0.9590   -0.4994   -0.0529 C.ar      1 <0>         0.0428
      8 C6          5.3226   -0.3305    0.2056 C.3       1 <0>        -0.0316
      9 C7          3.2541   -1.6525   -0.2711 C.2       1 <0>        -0.0770
     10 C8          4.5640   -1.6226    0.0365 C.2       1 <0>        -0.0759
     11 C9          0.3041    0.6256    0.4731 C.ar      1 <0>         0.1288
     12 C10         2.7997    3.3373    0.7118 C.3       1 <0>        -0.0249
     13 C11         1.9339    2.3569   -1.3940 C.3       1 <0>        -0.0249
     14 C12         0.1997   -1.6635   -0.2623 C.ar      1 <0>         0.1243
     15 C13        -1.0425    0.5579    0.8514 C.ar      1 <0>        -0.0162
     16 C14         5.3643   -2.8780    0.2312 C.3       1 <0>        -0.0438
     17 C15        -1.7652   -0.6176    0.6729 C.ar      1 <0>        -0.0404
     18 C16        -1.1464   -1.7256    0.1065 C.ar      1 <0>        -0.0165
     19 C17        -3.2016   -0.6806    1.0669 C.3       1 <0>        -0.0275
     20 C18        -4.1849   -0.2615   -0.0417 C.3       1 <0>        -0.0491
     21 C19        -5.6446   -0.2765    0.4225 C.3       1 <0>        -0.0530
     22 C20        -6.5860    0.1698   -0.6967 C.3       1 <0>        -0.0559
     23 C21        -8.0331    0.1941   -0.2307 C.3       1 <0>        -0.0653
     24 H1          3.0782    0.5721    1.3390 H         1 <0>         0.0348
     25 H2          2.4124   -0.2372   -1.5553 H         1 <0>         0.0398
     26 H3          5.0131    1.7923    0.2526 H         1 <0>         0.0272
     27 H4          4.5801    1.0472   -1.2833 H         1 <0>         0.0272
     28 H5          5.6159   -0.2417    1.2594 H         1 <0>         0.0310
     29 H6          6.2474   -0.3597   -0.3828 H         1 <0>         0.0310
     30 H7          2.8211   -2.6349   -0.4041 H         1 <0>         0.0578
     31 H8          3.0340    3.1689    1.7688 H         1 <0>         0.0268
     32 H9          3.7110    3.6601    0.1998 H         1 <0>         0.0268
     33 H10         2.0784    4.1622    0.6842 H         1 <0>         0.0268
     34 H11         1.3522    3.2827   -1.4951 H         1 <0>         0.0268
     35 H12         2.8637    2.4961   -1.9546 H         1 <0>         0.0268
     36 H13         1.3323    1.5989   -1.9036 H         1 <0>         0.0268
     37 H14        -1.5273    1.4365    1.2723 H         1 <0>         0.0657
     38 H15         5.7931   -2.9010    1.2383 H         1 <0>         0.0274
     39 H16         6.1813   -2.9238   -0.4960 H         1 <0>         0.0274
     40 H17         4.7573   -3.7811    0.1077 H         1 <0>         0.0274
     41 H18        -1.7237   -2.6311   -0.0673 H         1 <0>         0.0657
     42 H19        -3.4454   -1.6985    1.3992 H         1 <0>         0.0313
     43 H20        -3.3607   -0.0467    1.9494 H         1 <0>         0.0313
     44 H21        -4.0674   -0.9305   -0.9036 H         1 <0>         0.0268
     45 H22        -3.9269    0.7464   -0.3915 H         1 <0>         0.0268
     46 H23        -0.0123   -3.4420   -0.9781 H         1 <0>         0.2921
     47 H24        -5.9144   -1.2867    0.7529 H         1 <0>         0.0265
     48 H25        -5.7590    0.3887    1.2870 H         1 <0>         0.0265
     49 H26        -6.4937   -0.5083   -1.5531 H         1 <0>         0.0263
     50 H27        -6.3049    1.1710   -1.0435 H         1 <0>         0.0263
     51 H28        -8.1649    0.8900    0.6039 H         1 <0>         0.0230
     52 H29        -8.6887    0.5143   -1.0465 H         1 <0>         0.0230
     53 H30        -8.3567   -0.7995    0.0955 H         1 <0>         0.0230
@<TRIPOS>BOND
     1    1    5 1
     2    1   11 1
     3    2   14 1
     4    2   46 1
     5    3    4 1
     6    3    5 1
     7    3    6 1
     8    3   24 1
     9    4    7 1
    10    4    9 1
    11    4   25 1
    12    5   12 1
    13    5   13 1
    14    6    8 1
    15    6   26 1
    16    6   27 1
    17    7   11 ar
    18    7   14 ar
    19    8   10 1
    20    8   28 1
    21    8   29 1
    22    9   10 2
    23    9   30 1
    24   10   16 1
    25   11   15 ar
    26   12   31 1
    27   12   32 1
    28   12   33 1
    29   13   34 1
    30   13   35 1
    31   13   36 1
    32   14   18 ar
    33   15   17 ar
    34   15   37 1
    35   16   38 1
    36   16   39 1
    37   16   40 1
    38   17   18 ar
    39   17   19 1
    40   18   41 1
    41   19   20 1
    42   19   42 1
    43   19   43 1
    44   20   21 1
    45   20   44 1
    46   20   45 1
    47   21   22 1
    48   21   47 1
    49   21   48 1
    50   22   23 1
    51   22   49 1
    52   22   50 1
    53   23   51 1
    54   23   52 1
    55   23   53 1
