@<TRIPOS>MOLECULE
DB00324
   56    59     0     0     0
SMALL
USER_CHARGES

@<TRIPOS>ATOM
      1 F1          0.9519   -0.6535   -1.5548 F         1 <0>        -0.2377
      2 O1         -3.3320    0.1417   -1.9237 O.3       1 <0>        -0.3805
      3 O2         -0.1504   -2.2174    1.4887 O.3       1 <0>        -0.3886
      4 O3         -5.2327    0.3733    0.9118 O.2       1 <0>        -0.2946
      5 O4          5.6954   -1.3940   -2.2146 O.2       1 <0>        -0.2879
      6 C1         -2.0659   -0.1452    0.1649 C.3       1 <0>         0.0092
      7 C2         -1.0308    0.9121   -0.2793 C.3       1 <0>        -0.0266
      8 C3          0.3720    0.6745    0.3012 C.3       1 <0>         0.0005
      9 C4          0.8913   -0.7235   -0.1716 C.3       1 <0>         0.1526
     10 C5         -3.3310    0.4304   -0.5285 C.3       1 <0>         0.1289
     11 C6         -1.5753   -1.5139   -0.3461 C.3       1 <0>        -0.0151
     12 C7         -0.1403   -1.8566    0.1161 C.3       1 <0>         0.0910
     13 C8         -1.7344    2.2364    0.0071 C.3       1 <0>        -0.0462
     14 C9          2.3723   -0.9956    0.3039 C.3       1 <0>         0.0445
     15 C10        -3.2159    1.9577   -0.3208 C.3       1 <0>        -0.0163
     16 C11         1.3281    1.8005   -0.1319 C.3       1 <0>        -0.0406
     17 C12         2.7696    1.5606    0.3381 C.3       1 <0>        -0.0210
     18 C13        -2.2863   -0.1815    1.7029 C.3       1 <0>        -0.0562
     19 C14         3.2370    0.1953   -0.1603 C.2       1 <0>        -0.0504
     20 C15        -4.6280   -0.1336   -0.0318 C.2       1 <0>         0.1621
     21 C16         2.5271   -1.1388    1.8365 C.3       1 <0>        -0.0493
     22 C17         2.8671   -2.3101   -0.2839 C.2       1 <0>        -0.0674
     23 C18         3.6358    2.7641   -0.0594 C.3       1 <0>        -0.0587
     24 C19         4.2995    0.0423   -0.9704 C.2       1 <0>        -0.0145
     25 C20         3.9224   -2.4524   -1.0896 C.2       1 <0>        -0.0180
     26 C21        -5.1551   -1.3488   -0.7456 C.3       1 <0>        -0.0031
     27 C22         4.7180   -1.2791   -1.4827 C.2       1 <0>         0.1787
     28 H1         -0.9252    0.8594   -1.3755 H         1 <0>         0.0311
     29 H2          0.3232    0.7026    1.3937 H         1 <0>         0.0336
     30 H3         -1.5852   -1.5340   -1.4427 H         1 <0>         0.0297
     31 H4         -2.2580   -2.3006   -0.0044 H         1 <0>         0.0297
     32 H5          0.1467   -2.7552   -0.4407 H         1 <0>         0.0626
     33 H6         -1.3413    3.0528   -0.6074 H         1 <0>         0.0269
     34 H7         -1.6239    2.5283    1.0576 H         1 <0>         0.0269
     35 H8         -3.8363    2.3368    0.4981 H         1 <0>         0.0297
     36 H9         -3.5018    2.5080   -1.2248 H         1 <0>         0.0297
     37 H10         0.9736    2.7540    0.2797 H         1 <0>         0.0275
     38 H11         1.3075    1.9051   -1.2253 H         1 <0>         0.0275
     39 H12         2.7786    1.5395    1.4353 H         1 <0>         0.0343
     40 H13        -1.3683   -0.1733    2.2870 H         1 <0>         0.0236
     41 H14        -2.8518    0.6858    2.0605 H         1 <0>         0.0236
     42 H15        -2.8566   -1.0719    1.9916 H         1 <0>         0.0236
     43 H16         2.1781   -2.1092    2.2064 H         1 <0>         0.0242
     44 H17         3.5834   -1.0707    2.1300 H         1 <0>         0.0242
     45 H18         1.9949   -0.3626    2.3937 H         1 <0>         0.0242
     46 H19         2.3324   -3.2165   -0.0076 H         1 <0>         0.0583
     47 H20        -4.0155    0.6863   -2.3502 H         1 <0>         0.2108
     48 H21         0.0462   -1.4382    2.0283 H         1 <0>         0.2099
     49 H22         3.6587    2.9077   -1.1453 H         1 <0>         0.0235
     50 H23         3.2410    3.6840    0.3864 H         1 <0>         0.0235
     51 H24         4.6645    2.6461    0.2985 H         1 <0>         0.0235
     52 H25         4.9021    0.8784   -1.3058 H         1 <0>         0.0656
     53 H26         4.2228   -3.4249   -1.4617 H         1 <0>         0.0653
     54 H27        -5.5926   -1.0613   -1.7048 H         1 <0>         0.0307
     55 H28        -4.3697   -2.0916   -0.8932 H         1 <0>         0.0307
     56 H29        -5.9367   -1.8096   -0.1335 H         1 <0>         0.0307
@<TRIPOS>BOND
     1    1    9 1
     2    2   10 1
     3    2   47 1
     4    3   12 1
     5    3   48 1
     6    4   20 2
     7    5   27 2
     8    6    7 1
     9    6   10 1
    10    6   11 1
    11    6   18 1
    12    7    8 1
    13    7   13 1
    14    7   28 1
    15    8    9 1
    16    8   16 1
    17    8   29 1
    18    9   12 1
    19    9   14 1
    20   10   15 1
    21   10   20 1
    22   11   12 1
    23   11   30 1
    24   11   31 1
    25   12   32 1
    26   13   15 1
    27   13   33 1
    28   13   34 1
    29   14   19 1
    30   14   21 1
    31   14   22 1
    32   15   35 1
    33   15   36 1
    34   16   17 1
    35   16   37 1
    36   16   38 1
    37   17   19 1
    38   17   23 1
    39   17   39 1
    40   18   40 1
    41   18   41 1
    42   18   42 1
    43   19   24 2
    44   20   26 1
    45   21   43 1
    46   21   44 1
    47   21   45 1
    48   22   25 2
    49   22   46 1
    50   23   49 1
    51   23   50 1
    52   23   51 1
    53   24   27 1
    54   24   52 1
    55   25   27 1
    56   25   53 1
    57   26   54 1
    58   26   55 1
    59   26   56 1
