@<TRIPOS>MOLECULE
DB00850
   53    56     0     0     0
SMALL
USER_CHARGES

@<TRIPOS>ATOM
      1 Cl1         3.0099    5.0666    0.5888 Cl        1 <0>        -0.0835
      2 S1          6.0470   -0.4427    0.4331 S.3       1 <0>        -0.0857
      3 O1         -7.9372   -0.0727    1.2290 O.3       1 <0>        -0.3937
      4 N1         -1.7740    0.5608   -0.5555 N.3       1 <0>        -0.2999
      5 N2         -4.3700   -0.3396    0.3436 N.3       1 <0>        -0.2977
      6 N3          3.1433    0.0231   -0.5747 N.pl3     1 <0>        -0.2982
      7 C1         -2.9820    0.7967   -1.3557 C.3       1 <0>         0.0117
      8 C2         -1.9219   -0.6583    0.2489 C.3       1 <0>         0.0117
      9 C3         -4.2228    0.8800   -0.4601 C.3       1 <0>         0.0118
     10 C4         -3.1625   -0.5737    1.1449 C.3       1 <0>         0.0118
     11 C5         -0.5922    0.4777   -1.4115 C.3       1 <0>         0.0004
     12 C6          0.6929    0.2976   -0.5976 C.3       1 <0>        -0.0240
     13 C7         -5.5526   -0.2582    1.1987 C.3       1 <0>         0.0222
     14 C8          1.9729    0.2522   -1.4315 C.3       1 <0>         0.0185
     15 C9         -6.8140   -0.1314    0.3596 C.3       1 <0>         0.0569
     16 C10         3.8034    1.1642   -0.0524 C.ar      1 <0>         0.0493
     17 C11         3.4835   -1.3214   -0.2796 C.ar      1 <0>         0.0479
     18 C12         5.1140    1.0750    0.4571 C.ar      1 <0>         0.0342
     19 C13         4.7624   -1.6567    0.2071 C.ar      1 <0>         0.0341
     20 C14         3.1736    2.4262    0.0164 C.ar      1 <0>        -0.0209
     21 C15         2.5555   -2.3761   -0.4227 C.ar      1 <0>        -0.0393
     22 C16         5.7609    2.2080    0.9818 C.ar      1 <0>        -0.0448
     23 C17         5.0921   -2.9908    0.5055 C.ar      1 <0>        -0.0462
     24 C18         3.8195    3.5480    0.5436 C.ar      1 <0>         0.0428
     25 C19         2.8867   -3.6997   -0.1198 C.ar      1 <0>        -0.0599
     26 C20         5.1155    3.4395    1.0240 C.ar      1 <0>        -0.0422
     27 C21         4.1574   -4.0077    0.3419 C.ar      1 <0>        -0.0606
     28 H1         -3.1182    0.0024   -2.1024 H         1 <0>         0.0439
     29 H2         -2.8859    1.7439   -1.9006 H         1 <0>         0.0439
     30 H3         -1.0847   -0.7950    0.9387 H         1 <0>         0.0439
     31 H4         -1.9820   -1.5502   -0.3891 H         1 <0>         0.0439
     32 H5         -5.0654    1.0196   -1.1433 H         1 <0>         0.0439
     33 H6         -4.1603    1.7704    0.1801 H         1 <0>         0.0439
     34 H7         -3.0273    0.2217    1.8904 H         1 <0>         0.0439
     35 H8         -3.2582   -1.5201    1.6910 H         1 <0>         0.0439
     36 H9         -0.6847   -0.3458   -2.1317 H         1 <0>         0.0427
     37 H10        -0.4994    1.4044   -1.9917 H         1 <0>         0.0427
     38 H11         0.7435    1.1060    0.1404 H         1 <0>         0.0293
     39 H12         0.6378   -0.6086    0.0038 H         1 <0>         0.0293
     40 H13        -5.4886    0.5798    1.9057 H         1 <0>         0.0449
     41 H14        -5.6388   -1.1646    1.8122 H         1 <0>         0.0449
     42 H15         2.0802    1.1723   -2.0210 H         1 <0>         0.0468
     43 H16         1.8958   -0.5274   -2.2017 H         1 <0>         0.0468
     44 H17        -6.9355   -0.9917   -0.3072 H         1 <0>         0.0570
     45 H18        -6.8473    0.7870   -0.2302 H         1 <0>         0.0570
     46 H19         2.1652    2.5779   -0.3552 H         1 <0>         0.0651
     47 H20         1.5536   -2.2279   -0.8099 H         1 <0>         0.0636
     48 H21         6.7775    2.1424    1.3645 H         1 <0>         0.0630
     49 H22         6.0836   -3.2522    0.8698 H         1 <0>         0.0629
     50 H23        -8.7298   -0.0097    0.6692 H         1 <0>         0.2095
     51 H24         2.1507   -4.4871   -0.2543 H         1 <0>         0.0618
     52 H25         5.6359    4.3004    1.4346 H         1 <0>         0.0632
     53 H26         4.4211   -5.0347    0.5748 H         1 <0>         0.0618
@<TRIPOS>BOND
     1    1   24 1
     2    2   18 1
     3    2   19 1
     4    3   15 1
     5    3   50 1
     6    4    7 1
     7    4    8 1
     8    4   11 1
     9    5    9 1
    10    5   10 1
    11    5   13 1
    12    6   14 1
    13    6   16 1
    14    6   17 1
    15    7    9 1
    16    7   28 1
    17    7   29 1
    18    8   10 1
    19    8   30 1
    20    8   31 1
    21    9   32 1
    22    9   33 1
    23   10   34 1
    24   10   35 1
    25   11   12 1
    26   11   36 1
    27   11   37 1
    28   12   14 1
    29   12   38 1
    30   12   39 1
    31   13   15 1
    32   13   40 1
    33   13   41 1
    34   14   42 1
    35   14   43 1
    36   15   44 1
    37   15   45 1
    38   16   18 ar
    39   16   20 ar
    40   17   19 ar
    41   17   21 ar
    42   18   22 ar
    43   19   23 ar
    44   20   24 ar
    45   20   46 1
    46   21   25 ar
    47   21   47 1
    48   22   26 ar
    49   22   48 1
    50   23   27 ar
    51   23   49 1
    52   24   26 ar
    53   25   27 ar
    54   25   51 1
    55   26   52 1
    56   27   53 1
