@<TRIPOS>MOLECULE
DB00752
   21    22     0     0     0
SMALL
USER_CHARGES

@<TRIPOS>ATOM
      1 N1          3.2730    0.8232    0.1070 N.3       1 <0>        -0.3267
      2 C1          1.0244   -0.1248   -0.6739 C.3       1 <0>         0.0008
      3 C2          2.0250    0.1190    0.4125 C.3       1 <0>         0.0123
      4 C3          1.8039   -1.2708   -0.1081 C.3       1 <0>        -0.0289
      5 C4         -0.4287   -0.0104   -0.3632 C.ar      1 <0>        -0.0428
      6 C5         -1.0330    1.2452   -0.3038 C.ar      1 <0>        -0.0583
      7 C6         -1.1843   -1.1598   -0.1319 C.ar      1 <0>        -0.0583
      8 C7         -2.3931    1.3516   -0.0128 C.ar      1 <0>        -0.0615
      9 C8         -2.5444   -1.0535    0.1589 C.ar      1 <0>        -0.0615
     10 C9         -3.1488    0.2023    0.2186 C.ar      1 <0>        -0.0617
     11 H1          1.3103    0.1768   -1.6800 H         1 <0>         0.0364
     12 H2          1.6482    0.3237    1.4102 H         1 <0>         0.0464
     13 H3          1.3643   -1.9745    0.5883 H         1 <0>         0.0287
     14 H4          2.5669   -1.7157   -0.7381 H         1 <0>         0.0287
     15 H5          3.9887    0.5779    0.7899 H         1 <0>         0.1185
     16 H6          3.1355    1.8295    0.1912 H         1 <0>         0.1185
     17 H7         -0.4533    2.1470   -0.4827 H         1 <0>         0.0620
     18 H8         -0.7486   -2.1526   -0.1931 H         1 <0>         0.0620
     19 H9         -2.8638    2.3293    0.0333 H         1 <0>         0.0618
     20 H10        -3.1343   -1.9484    0.3339 H         1 <0>         0.0618
     21 H11        -4.2081    0.2850    0.4436 H         1 <0>         0.0618
@<TRIPOS>BOND
     1    1    3 1
     2    1   15 1
     3    1   16 1
     4    2    3 1
     5    2    4 1
     6    2    5 1
     7    2   11 1
     8    3    4 1
     9    3   12 1
    10    4   13 1
    11    4   14 1
    12    5    6 ar
    13    5    7 ar
    14    6    8 ar
    15    6   17 1
    16    7    9 ar
    17    7   18 1
    18    8   10 ar
    19    8   19 1
    20    9   10 ar
    21    9   20 1
    22   10   21 1
