@<TRIPOS>MOLECULE
DB00556
   11    10     0     0     0
SMALL
USER_CHARGES

@<TRIPOS>ATOM
      1 F1          0.0000    1.4092    1.0818 F         1 <0>        -0.1861
      2 F2          0.0001    1.4014   -1.0965 F         1 <0>        -0.1861
      3 F3          1.3335   -1.0243   -1.0873 F         1 <0>        -0.1647
      4 F4          1.3173   -1.0145    1.0936 F         1 <0>        -0.1647
      5 F5          2.3606    0.5612    0.0048 F         1 <0>        -0.1647
      6 F6         -1.3195   -1.0111    1.0959 F         1 <0>        -0.1647
      7 F7         -2.3607    0.5613    0.0001 F         1 <0>        -0.1647
      8 F8         -1.3312   -1.0276   -1.0850 F         1 <0>        -0.1647
      9 C1          0.0000    0.5953   -0.0045 C.3       1 <0>         0.4340
     10 C2          1.2637   -0.2255   -0.0015 C.3       1 <0>         0.4633
     11 C3         -1.2637   -0.2255   -0.0015 C.3       1 <0>         0.4633
@<TRIPOS>BOND
     1    1    9 1
     2    2    9 1
     3    3   10 1
     4    4   10 1
     5    5   10 1
     6    6   11 1
     7    7   11 1
     8    8   11 1
     9    9   10 1
    10    9   11 1
