@<TRIPOS>MOLECULE
DB00339
   14    14     0     0     0
SMALL
USER_CHARGES

@<TRIPOS>ATOM
      1 O1          2.2231    1.5922    0.0109 O.2       1 <0>        -0.2687
      2 N1         -0.1990   -0.9757    0.0003 N.ar      1 <0>        -0.2473
      3 N2         -1.9315    1.2300   -0.0015 N.ar      1 <0>        -0.2595
      4 N3          2.4911   -0.6853   -0.0022 N.am      1 <0>        -0.3240
      5 C1          0.2593    0.2919   -0.0015 C.ar      1 <0>         0.1431
      6 C2         -0.5916    1.3752   -0.0024 C.ar      1 <0>         0.0580
      7 C3          1.6998    0.4618   -0.0032 C.2       1 <0>         0.2614
      8 C4         -1.5389   -1.1208    0.0016 C.ar      1 <0>         0.0465
      9 C5         -2.3900   -0.0376    0.0006 C.ar      1 <0>         0.0457
     10 H1         -0.2408    2.4006   -0.0043 H         1 <0>         0.0853
     11 H2         -1.9079   -2.1391    0.0034 H         1 <0>         0.0845
     12 H3         -3.4665   -0.1552    0.0015 H         1 <0>         0.0845
     13 H4          2.0891   -1.6173   -0.0061 H         1 <0>         0.1453
     14 H5          3.5037   -0.6208    0.0030 H         1 <0>         0.1453
@<TRIPOS>BOND
     1    1    7 2
     2    2    5 ar
     3    2    8 ar
     4    3    6 ar
     5    3    9 ar
     6    4    7 am
     7    4   13 1
     8    4   14 1
     9    5    6 ar
    10    5    7 1
    11    6   10 1
    12    8    9 ar
    13    8   11 1
    14    9   12 1
