@<TRIPOS>MOLECULE
DB00941
   80    85     0     0     0
SMALL
USER_CHARGES

@<TRIPOS>ATOM
      1 N1          4.3388   -1.2478   -0.6900 N.4       1 <0>         0.2477
      2 N2         -4.3241   -1.2862    0.6946 N.4       1 <0>         0.2477
      3 C1          4.5871   -0.0793    0.1957 C.3       1 <0>         0.0333
      4 C2         -4.5834   -0.0719   -0.2087 C.3       1 <0>         0.0333
      5 C3          2.9088   -1.2145   -1.2437 C.3       1 <0>        -0.0297
      6 C4         -2.9416   -1.2601    1.2298 C.3       1 <0>        -0.0297
      7 C5          1.9248   -1.2197   -0.0834 C.3       1 <0>        -0.0124
      8 C6         -1.9580   -1.2549    0.0691 C.3       1 <0>        -0.0124
      9 C7          5.9895   -0.0551    0.7773 C.ar      1 <0>         0.0126
     10 C8          4.5319    1.2500   -0.5362 C.ar      1 <0>         0.0126
     11 C9         -5.9992   -0.0233   -0.7558 C.ar      1 <0>         0.0126
     12 C10        -4.4896    1.2533    0.5267 C.ar      1 <0>         0.0126
     13 C11         0.4813   -1.2336   -0.5879 C.3       1 <0>        -0.0481
     14 C12        -0.5142   -1.2748    0.5728 C.3       1 <0>        -0.0481
     15 C13         4.5239   -2.5612    0.0805 C.3       1 <0>        -0.0406
     16 C14         5.3124   -1.2461   -1.8754 C.3       1 <0>        -0.0406
     17 C15        -4.5652   -2.5561   -0.1341 C.3       1 <0>        -0.0406
     18 C16        -5.3522   -1.2595    1.8346 C.3       1 <0>        -0.0406
     19 C17         6.6502    1.1413    0.4175 C.ar      1 <0>        -0.0086
     20 C18         5.7549    1.9428   -0.3895 C.ar      1 <0>        -0.0086
     21 C19        -6.6319    1.1818   -0.3753 C.ar      1 <0>        -0.0086
     22 C20        -5.7048    1.9658    0.4126 C.ar      1 <0>        -0.0086
     23 C21         6.6168   -1.0213    1.5462 C.ar      1 <0>        -0.0523
     24 C22         3.4871    1.7811   -1.2744 C.ar      1 <0>        -0.0523
     25 C23        -6.6602   -0.9762   -1.5129 C.ar      1 <0>        -0.0523
     26 C24        -3.4188    1.7649    1.2410 C.ar      1 <0>        -0.0523
     27 C25         7.9489    1.3818    0.8351 C.ar      1 <0>        -0.0536
     28 C26         5.9370    3.1832   -0.9788 C.ar      1 <0>        -0.0536
     29 C27        -7.9365    1.4444   -0.7601 C.ar      1 <0>        -0.0536
     30 C28        -5.8528    3.2064    1.0110 C.ar      1 <0>        -0.0536
     31 C29         7.9256   -0.7782    1.9670 C.ar      1 <0>        -0.0613
     32 C30         3.6711    3.0312   -1.8680 C.ar      1 <0>        -0.0613
     33 C31        -7.9749   -0.7109   -1.9006 C.ar      1 <0>        -0.0613
     34 C32        -3.5686    3.0152    1.8440 C.ar      1 <0>        -0.0613
     35 C33         8.5848    0.4119    1.6157 C.ar      1 <0>        -0.0612
     36 C34         4.8837    3.7257   -1.7211 C.ar      1 <0>        -0.0612
     37 C35        -8.6065    0.4878   -1.5287 C.ar      1 <0>        -0.0612
     38 C36        -4.7733    3.7290    1.7293 C.ar      1 <0>        -0.0612
     39 H1          3.9031   -0.0767    1.0499 H         1 <0>         0.0958
     40 H2         -3.9150   -0.0867   -1.0750 H         1 <0>         0.0958
     41 H3          2.7834   -2.1452   -1.8150 H         1 <0>         0.0815
     42 H4          2.7891   -0.4327   -1.9891 H         1 <0>         0.0815
     43 H5         -2.8079   -2.1935    1.7951 H         1 <0>         0.0815
     44 H6         -2.8106   -0.4815    1.9782 H         1 <0>         0.0815
     45 H7          2.0172   -0.3267    0.5398 H         1 <0>         0.0317
     46 H8          2.0602   -2.0916    0.5638 H         1 <0>         0.0317
     47 H9         -2.0918   -2.1202   -0.5880 H         1 <0>         0.0317
     48 H10        -2.0459   -0.3562   -0.5460 H         1 <0>         0.0317
     49 H11         0.3251   -2.1062   -1.2339 H         1 <0>         0.0267
     50 H12         0.2997   -0.3416   -1.2000 H         1 <0>         0.0267
     51 H13        -0.3455   -2.1788    1.1708 H         1 <0>         0.0267
     52 H14        -0.3443   -0.4148    1.2322 H         1 <0>         0.0267
     53 H15         4.1361   -2.4572    1.0972 H         1 <0>         0.0778
     54 H16         3.9749   -3.3512   -0.4437 H         1 <0>         0.0778
     55 H17         5.5778   -2.8492    0.0624 H         1 <0>         0.0778
     56 H18         5.1403   -0.3648   -2.4985 H         1 <0>         0.0778
     57 H19         6.3432   -1.2794   -1.5135 H         1 <0>         0.0778
     58 H20         5.1124   -2.1452   -2.4681 H         1 <0>         0.0778
     59 H21        -5.6221   -2.8298   -0.0969 H         1 <0>         0.0778
     60 H22        -4.1929   -2.4199   -1.1528 H         1 <0>         0.0778
     61 H23        -4.0176   -3.3766    0.3435 H         1 <0>         0.0778
     62 H24        -5.1794   -2.1527    2.4449 H         1 <0>         0.0778
     63 H25        -5.1935   -0.3739    2.4553 H         1 <0>         0.0778
     64 H26        -6.3703   -1.2937    1.4400 H         1 <0>         0.0778
     65 H27         6.1263   -1.9158    1.9036 H         1 <0>         0.0623
     66 H28         2.4994    1.3464   -1.3242 H         1 <0>         0.0623
     67 H29        -6.1940   -1.8742   -1.8927 H         1 <0>         0.0623
     68 H30        -2.4415    1.3049    1.2738 H         1 <0>         0.0623
     69 H31         8.4718    2.2949    0.5704 H         1 <0>         0.0624
     70 H32         6.8678    3.7310   -0.8755 H         1 <0>         0.0624
     71 H33        -8.4383    2.3644   -0.4794 H         1 <0>         0.0624
     72 H34        -6.7771    3.7691    0.9327 H         1 <0>         0.0624
     73 H35         8.4368   -1.5092    2.5879 H         1 <0>         0.0618
     74 H36         2.8593    3.4864   -2.4293 H         1 <0>         0.0618
     75 H37        -8.5121   -1.4305   -2.5129 H         1 <0>         0.0618
     76 H38        -2.7372    3.4538    2.3895 H         1 <0>         0.0618
     77 H39         9.6024    0.5803    1.9582 H         1 <0>         0.0618
     78 H40         5.0014    4.7003   -2.1877 H         1 <0>         0.0618
     79 H41        -9.6293    0.6738   -1.8459 H         1 <0>         0.0618
     80 H42        -4.8645    4.7031    2.2031 H         1 <0>         0.0618
@<TRIPOS>BOND
     1    1    3 1
     2    1    5 1
     3    1   15 1
     4    1   16 1
     5    2    4 1
     6    2    6 1
     7    2   17 1
     8    2   18 1
     9    3    9 1
    10    3   10 1
    11    3   39 1
    12    4   11 1
    13    4   12 1
    14    4   40 1
    15    5    7 1
    16    5   41 1
    17    5   42 1
    18    6    8 1
    19    6   43 1
    20    6   44 1
    21    7   13 1
    22    7   45 1
    23    7   46 1
    24    8   14 1
    25    8   47 1
    26    8   48 1
    27    9   19 ar
    28    9   23 ar
    29   10   20 ar
    30   10   24 ar
    31   11   21 ar
    32   11   25 ar
    33   12   22 ar
    34   12   26 ar
    35   13   14 1
    36   13   49 1
    37   13   50 1
    38   14   51 1
    39   14   52 1
    40   15   53 1
    41   15   54 1
    42   15   55 1
    43   16   56 1
    44   16   57 1
    45   16   58 1
    46   17   59 1
    47   17   60 1
    48   17   61 1
    49   18   62 1
    50   18   63 1
    51   18   64 1
    52   19   20 1
    53   19   27 ar
    54   20   28 ar
    55   21   22 1
    56   21   29 ar
    57   22   30 ar
    58   23   31 ar
    59   23   65 1
    60   24   32 ar
    61   24   66 1
    62   25   33 ar
    63   25   67 1
    64   26   34 ar
    65   26   68 1
    66   27   35 ar
    67   27   69 1
    68   28   36 ar
    69   28   70 1
    70   29   37 ar
    71   29   71 1
    72   30   38 ar
    73   30   72 1
    74   31   35 ar
    75   31   73 1
    76   32   36 ar
    77   32   74 1
    78   33   37 ar
    79   33   75 1
    80   34   38 ar
    81   34   76 1
    82   35   77 1
    83   36   78 1
    84   37   79 1
    85   38   80 1
