@<TRIPOS>MOLECULE
DB00267
   50    53     0     0     0
SMALL
USER_CHARGES

@<TRIPOS>ATOM
      1 S1          0.0594   -1.3756    1.8451 S.3       1 <0>        -0.1311
      2 S2         -4.1131    0.5540    0.4494 S.3       1 <0>        -0.0801
      3 S3          2.7751    3.7556   -1.4301 S.3       1 <0>        -0.0604
      4 O1          0.8462   -1.8660   -2.7106 O.2       1 <0>        -0.2731
      5 O2         -2.2397   -2.6070   -2.7509 O.3       1 <0>        -0.4763
      6 O3         -2.7439   -0.4046   -2.3971 O.2       1 <0>        -0.2437
      7 O4          3.8917   -1.3090   -1.8867 O.2       1 <0>        -0.2683
      8 O5          5.5944   -1.2715    0.7116 O.3       1 <0>        -0.3964
      9 N1         -0.3602   -2.0373   -0.6917 N.am      1 <0>        -0.2490
     10 N2          2.5216   -1.2561    0.0186 N.am      1 <0>        -0.2963
     11 N3          5.3634    0.0978    0.5197 N.2       1 <0>        -0.0779
     12 N4         -6.5917    1.7809    0.5255 N.pl3     1 <0>        -0.2233
     13 N5          4.6869    2.7447   -0.0142 N.2       1 <0>        -0.2233
     14 N6         -6.7187   -0.3829    0.5928 N.2       1 <0>        -0.1015
     15 N7         -7.9021    1.5065    0.5910 N.2       1 <0>        -0.0435
     16 N8         -7.9735    0.1816    0.6314 N.2       1 <0>        -0.0222
     17 N9          4.6270    5.1073   -0.0830 N.pl3     1 <0>        -0.3375
     18 C1          0.3244   -2.5377    0.4864 C.3       1 <0>         0.1042
     19 C2          1.6313   -2.3664   -0.3183 C.3       1 <0>         0.1286
     20 C3          0.6997   -2.0710   -1.5283 C.2       1 <0>         0.2440
     21 C4         -1.6750   -1.6988   -0.7139 C.2       1 <0>         0.1228
     22 C5         -2.3796   -1.5237    0.4294 C.2       1 <0>        -0.0211
     23 C6         -1.7530   -1.5877    1.8206 C.3       1 <0>         0.0196
     24 C7         -3.8591   -1.2280    0.4877 C.3       1 <0>         0.0253
     25 C8         -2.2820   -1.4673   -2.0331 C.2       1 <0>         0.3514
     26 C9          3.5561   -0.8504   -0.8066 C.2       1 <0>         0.2684
     27 C10         4.3359    0.3107   -0.2460 C.2       1 <0>         0.1897
     28 C11        -5.8790    0.6246    0.5270 C.2       1 <0>         0.2094
     29 C12         3.9568    1.6966   -0.5395 C.2       1 <0>         0.1067
     30 C13         2.8839    2.0468   -1.3319 C.2       1 <0>         0.0067
     31 C14        -6.1359    3.1466    0.4674 C.3       1 <0>         0.0346
     32 C15         4.1549    3.8772   -0.4172 C.2       1 <0>         0.1562
     33 C16         6.7274   -1.4133    1.5544 C.3       1 <0>         0.1072
     34 H1          0.0759   -3.5813    0.7132 H         1 <0>         0.0644
     35 H2          2.1908   -3.3027   -0.4314 H         1 <0>         0.0622
     36 H3         -2.1583   -0.7949    2.4575 H         1 <0>         0.0423
     37 H4         -2.0030   -2.5474    2.2861 H         1 <0>         0.0423
     38 H5          2.3896   -0.7541    0.8937 H         1 <0>         0.1499
     39 H6         -4.3780   -1.6902   -0.3596 H         1 <0>         0.0427
     40 H7         -4.2990   -1.6589    1.3944 H         1 <0>         0.0427
     41 H8         -2.6357   -2.4974   -3.6416 H         1 <0>         0.2954
     42 H9          2.1744    1.4137   -1.8462 H         1 <0>         0.0716
     43 H10        -5.5791    3.2883   -0.4621 H         1 <0>         0.0474
     44 H11        -6.9966    3.8203    0.4871 H         1 <0>         0.0474
     45 H12        -5.4992    3.3379    1.3346 H         1 <0>         0.0474
     46 H13         6.9134   -2.4795    1.7084 H         1 <0>         0.0687
     47 H14         6.5400   -0.9455    2.5259 H         1 <0>         0.0687
     48 H15         7.6095   -0.9670    1.0848 H         1 <0>         0.0687
     49 H16         5.4399    5.2239    0.5129 H         1 <0>         0.1442
     50 H17         4.1858    5.9580   -0.4167 H         1 <0>         0.1442
@<TRIPOS>BOND
     1    1   18 1
     2    1   23 1
     3    2   24 1
     4    2   28 1
     5    3   30 1
     6    3   32 1
     7    4   20 2
     8    5   25 1
     9    5   41 1
    10    6   25 2
    11    7   26 2
    12    8   11 1
    13    8   33 1
    14    9   18 1
    15    9   20 am
    16    9   21 1
    17   10   19 1
    18   10   26 am
    19   10   38 1
    20   11   27 2
    21   12   15 1
    22   12   28 1
    23   12   31 1
    24   13   29 1
    25   13   32 2
    26   14   16 1
    27   14   28 2
    28   15   16 2
    29   17   32 1
    30   17   49 1
    31   17   50 1
    32   18   19 1
    33   18   34 1
    34   19   20 1
    35   19   35 1
    36   21   22 2
    37   21   25 1
    38   22   23 1
    39   22   24 1
    40   23   36 1
    41   23   37 1
    42   24   39 1
    43   24   40 1
    44   26   27 1
    45   27   29 1
    46   29   30 2
    47   30   42 1
    48   31   43 1
    49   31   44 1
    50   31   45 1
    51   33   46 1
    52   33   47 1
    53   33   48 1
