@<TRIPOS>MOLECULE
DB00921
   75    81     0     0     0
SMALL
USER_CHARGES

@<TRIPOS>ATOM
      1 O1         -0.0404    3.3283   -1.2378 O.3       1 <0>        -0.4811
      2 O2          2.6984    2.3626   -0.7862 O.3       1 <0>        -0.3725
      3 O3          4.2051    0.5618   -0.1810 O.3       1 <0>        -0.3880
      4 O4         -1.5439    5.7761   -0.8012 O.3       1 <0>        -0.5033
      5 N1         -2.2625   -1.3033    0.1118 N.3       1 <0>        -0.2982
      6 C1         -0.4747    0.3100    0.6673 C.3       1 <0>         0.0004
      7 C2         -0.8328    1.1020   -0.6129 C.3       1 <0>         0.0474
      8 C3          1.5848    1.6469   -0.2721 C.3       1 <0>         0.1120
      9 C4          0.3440    1.9178   -1.1683 C.3       1 <0>         0.1397
     10 C5          1.8637    0.1068   -0.3098 C.3       1 <0>         0.0213
     11 C6          0.6683   -0.6795    0.3068 C.3       1 <0>        -0.0368
     12 C7         -1.8229   -0.3336    1.1421 C.3       1 <0>         0.0210
     13 C8          0.1609    1.2327    1.7661 C.3       1 <0>        -0.0423
     14 C9          1.3036    2.0733    1.1779 C.3       1 <0>        -0.0193
     15 C10        -1.4819    0.2152   -1.6971 C.3       1 <0>        -0.0263
     16 C11        -1.7396    2.1942   -0.2013 C.ar      1 <0>         0.0115
     17 C12        -2.9212    0.7649    1.4660 C.3       1 <0>        -0.0111
     18 C13         3.1829   -0.2992    0.3539 C.3       1 <0>         0.0737
     19 C14        -2.6151   -0.6710   -1.1623 C.3       1 <0>         0.0001
     20 C15        -2.7780    2.0681    0.7064 C.ar      1 <0>        -0.0383
     21 C16        -1.2770    3.4102   -0.6472 C.ar      1 <0>         0.1663
     22 C17        -3.3152   -2.2016    0.5742 C.3       1 <0>         0.0020
     23 C18         3.6088   -1.7924    0.0555 C.3       1 <0>        -0.0088
     24 C19        -3.5948   -3.2912   -0.4469 C.3       1 <0>        -0.0282
     25 C20         3.0916    0.0139    1.8596 C.3       1 <0>        -0.0352
     26 C21        -3.5043    3.2222    0.9973 C.ar      1 <0>        -0.0546
     27 C22        -1.9708    4.5660   -0.3630 C.ar      1 <0>         0.1588
     28 C23        -4.6587   -4.2781   -0.1398 C.3       1 <0>        -0.0488
     29 C24        -4.8743   -3.2336   -1.1956 C.3       1 <0>        -0.0488
     30 C25         2.9847    1.9904   -2.1279 C.3       1 <0>         0.0373
     31 C26        -3.1157    4.4590    0.4411 C.ar      1 <0>        -0.0162
     32 C27         3.1068   -2.2783   -1.3196 C.3       1 <0>        -0.0574
     33 C28         3.0443   -2.7519    1.1306 C.3       1 <0>        -0.0574
     34 C29         5.1477   -1.9519    0.0800 C.3       1 <0>        -0.0574
     35 H1          0.5262    1.6174   -2.2055 H         1 <0>         0.0771
     36 H2          1.8771   -0.1803   -1.3628 H         1 <0>         0.0358
     37 H3          0.3241   -1.4327   -0.4089 H         1 <0>         0.0276
     38 H4          0.8967   -1.2352    1.2129 H         1 <0>         0.0276
     39 H5         -1.6222   -0.8938    2.0653 H         1 <0>         0.0471
     40 H6          0.4954    0.6331    2.6173 H         1 <0>         0.0272
     41 H7         -0.5684    1.9163    2.2137 H         1 <0>         0.0272
     42 H8          0.9342    3.1094    1.1269 H         1 <0>         0.0294
     43 H9          2.1418    2.2463    1.8416 H         1 <0>         0.0294
     44 H10        -0.7177   -0.4329   -2.1457 H         1 <0>         0.0287
     45 H11        -1.8745    0.8298   -2.5183 H         1 <0>         0.0287
     46 H12        -2.8212    1.0036    2.5338 H         1 <0>         0.0329
     47 H13        -3.9384    0.3838    1.3355 H         1 <0>         0.0329
     48 H14        -3.5367   -0.0830   -1.0729 H         1 <0>         0.0427
     49 H15        -2.8052   -1.4196   -1.9395 H         1 <0>         0.0427
     50 H16        -2.9795   -2.7028    1.4905 H         1 <0>         0.0429
     51 H17        -4.2390   -1.6669    0.8218 H         1 <0>         0.0429
     52 H18        -2.7061   -3.6809   -0.9282 H         1 <0>         0.0313
     53 H19         2.2268   -0.3442    2.4072 H         1 <0>         0.0257
     54 H20         3.3888    1.0232    2.1335 H         1 <0>         0.0257
     55 H21         3.9290   -0.5103    2.3455 H         1 <0>         0.0257
     56 H22        -4.3354    3.1892    1.6964 H         1 <0>         0.0622
     57 H23         4.1321    1.4396    0.2286 H         1 <0>         0.2102
     58 H24        -5.2131   -4.1801    0.7855 H         1 <0>         0.0268
     59 H25        -4.5138   -5.3005   -0.4668 H         1 <0>         0.0268
     60 H26        -4.8679   -3.5537   -2.2305 H         1 <0>         0.0268
     61 H27        -5.5799   -2.4405   -0.9819 H         1 <0>         0.0268
     62 H28         2.2898    2.4637   -2.8275 H         1 <0>         0.0524
     63 H29         3.0872    0.9283   -2.3451 H         1 <0>         0.0524
     64 H30         3.9610    2.4311   -2.3623 H         1 <0>         0.0524
     65 H31        -3.6819    5.3521    0.6960 H         1 <0>         0.0655
     66 H32         3.5274   -3.2654   -1.5509 H         1 <0>         0.0236
     67 H33         2.0230   -2.4011   -1.3700 H         1 <0>         0.0236
     68 H34         3.4301   -1.6070   -2.1225 H         1 <0>         0.0236
     69 H35         1.9626   -2.8758    1.0800 H         1 <0>         0.0236
     70 H36         3.4419   -3.7622    0.9603 H         1 <0>         0.0236
     71 H37         3.3312   -2.5013    2.1540 H         1 <0>         0.0236
     72 H38         5.4412   -3.0016   -0.0396 H         1 <0>         0.0236
     73 H39         5.6242   -1.3955   -0.7348 H         1 <0>         0.0236
     74 H40         5.5723   -1.5999    1.0262 H         1 <0>         0.0236
     75 H41        -0.7347    5.6438   -1.3253 H         1 <0>         0.2923
@<TRIPOS>BOND
     1    1    9 1
     2    1   21 1
     3    2    8 1
     4    2   30 1
     5    3   18 1
     6    3   57 1
     7    4   27 1
     8    4   75 1
     9    5   12 1
    10    5   19 1
    11    5   22 1
    12    6    7 1
    13    6   11 1
    14    6   12 1
    15    6   13 1
    16    7    9 1
    17    7   15 1
    18    7   16 1
    19    8    9 1
    20    8   10 1
    21    8   14 1
    22    9   35 1
    23   10   11 1
    24   10   18 1
    25   10   36 1
    26   11   37 1
    27   11   38 1
    28   12   17 1
    29   12   39 1
    30   13   14 1
    31   13   40 1
    32   13   41 1
    33   14   42 1
    34   14   43 1
    35   15   19 1
    36   15   44 1
    37   15   45 1
    38   16   20 ar
    39   16   21 ar
    40   17   20 1
    41   17   46 1
    42   17   47 1
    43   18   23 1
    44   18   25 1
    45   19   48 1
    46   19   49 1
    47   20   26 ar
    48   21   27 ar
    49   22   24 1
    50   22   50 1
    51   22   51 1
    52   23   32 1
    53   23   33 1
    54   23   34 1
    55   24   28 1
    56   24   29 1
    57   24   52 1
    58   25   53 1
    59   25   54 1
    60   25   55 1
    61   26   31 ar
    62   26   56 1
    63   27   31 ar
    64   28   29 1
    65   28   58 1
    66   28   59 1
    67   29   60 1
    68   29   61 1
    69   30   62 1
    70   30   63 1
    71   30   64 1
    72   31   65 1
    73   32   66 1
    74   32   67 1
    75   32   68 1
    76   33   69 1
    77   33   70 1
    78   33   71 1
    79   34   72 1
    80   34   73 1
    81   34   74 1
