@<TRIPOS>MOLECULE
DB00214
   44    45     0     0     0
SMALL
USER_CHARGES

@<TRIPOS>ATOM
      1 S1          0.7901   -2.7370    1.5725 S.o2      1 <0>         0.0788
      2 O1          1.8504   -3.7245    1.5112 O.2       1 <0>        -0.1498
      3 O2         -0.1424   -2.7273    2.6829 O.2       1 <0>        -0.1498
      4 O3          3.2653   -1.7090    0.0031 O.2       1 <0>        -0.2512
      5 N1          2.9317    0.4866    0.6453 N.am      1 <0>        -0.2959
      6 N2         -1.7796   -1.2131    0.8831 N.pl3     1 <0>        -0.3129
      7 N3          1.4590   -1.1751    1.3841 N.am      1 <0>        -0.1692
      8 N4         -0.4383   -3.9183   -2.0459 N.ar      1 <0>        -0.2612
      9 C1          4.0605    1.0504   -0.0570 C.3       1 <0>         0.0190
     10 C2         -0.1735   -2.8723    0.0969 C.ar      1 <0>         0.1476
     11 C3         -1.3169   -2.1248   -0.0901 C.ar      1 <0>         0.0612
     12 C4         -2.5044   -0.0096    0.7930 C.ar      1 <0>         0.0316
     13 C5          4.5983    2.2646    0.6948 C.3       1 <0>        -0.0468
     14 C6          3.6406    1.4256   -1.4746 C.3       1 <0>        -0.0468
     15 C7          2.6251   -0.8603    0.6165 C.2       1 <0>         0.3191
     16 C8          0.2318   -3.7457   -0.8843 C.ar      1 <0>         0.0560
     17 C9         -2.0334   -2.2746   -1.2723 C.ar      1 <0>        -0.0205
     18 C10        -2.3765    0.8027   -0.3355 C.ar      1 <0>        -0.0376
     19 C11        -3.0952    1.9949   -0.4243 C.ar      1 <0>        -0.0487
     20 C12        -3.3539    0.3752    1.8322 C.ar      1 <0>        -0.0405
     21 C13        -1.5563   -3.1761   -2.2099 C.ar      1 <0>         0.0294
     22 C14        -3.9432    2.3772    0.6151 C.ar      1 <0>        -0.0587
     23 C15        -4.0726    1.5674    1.7433 C.ar      1 <0>        -0.0598
     24 C16        -2.9567    2.8612   -1.6300 C.3       1 <0>        -0.0397
     25 H1          4.8503    0.2921   -0.1136 H         1 <0>         0.0493
     26 H2          2.3065    1.1124    1.1442 H         1 <0>         0.1505
     27 H3         -1.5928   -1.5013    1.8386 H         1 <0>         0.1522
     28 H4          1.0043   -0.4096    1.8977 H         1 <0>         0.1781
     29 H5          5.4696    2.6863    0.1832 H         1 <0>         0.0247
     30 H6          3.8388    3.0498    0.7803 H         1 <0>         0.0247
     31 H7          4.9019    1.9876    1.7103 H         1 <0>         0.0247
     32 H8          3.2778    0.5485   -2.0219 H         1 <0>         0.0247
     33 H9          4.4837    1.8455   -2.0328 H         1 <0>         0.0247
     34 H10         2.8329    2.1661   -1.4678 H         1 <0>         0.0247
     35 H11         1.1225   -4.3577   -0.7971 H         1 <0>         0.0850
     36 H12        -2.9522   -1.7348   -1.4729 H         1 <0>         0.0652
     37 H13        -1.7007    0.5326   -1.1433 H         1 <0>         0.0639
     38 H14        -3.4641   -0.2472    2.7166 H         1 <0>         0.0636
     39 H15        -2.0815   -3.3342   -3.1463 H         1 <0>         0.0830
     40 H16        -4.5072    3.3044    0.5591 H         1 <0>         0.0620
     41 H17        -4.7327    1.8650    2.5527 H         1 <0>         0.0618
     42 H18        -2.0946    3.5262   -1.5177 H         1 <0>         0.0278
     43 H19        -2.8209    2.2570   -2.5336 H         1 <0>         0.0278
     44 H20        -3.8515    3.4734   -1.7858 H         1 <0>         0.0278
@<TRIPOS>BOND
     1    1    2 2
     2    1    3 2
     3    1    7 1
     4    1   10 1
     5    4   15 2
     6    5    9 1
     7    5   15 am
     8    5   26 1
     9    6   11 1
    10    6   12 1
    11    6   27 1
    12    7   15 am
    13    7   28 1
    14    8   16 ar
    15    8   21 ar
    16    9   13 1
    17    9   14 1
    18    9   25 1
    19   10   11 ar
    20   10   16 ar
    21   11   17 ar
    22   12   18 ar
    23   12   20 ar
    24   13   29 1
    25   13   30 1
    26   13   31 1
    27   14   32 1
    28   14   33 1
    29   14   34 1
    30   16   35 1
    31   17   21 ar
    32   17   36 1
    33   18   19 ar
    34   18   37 1
    35   19   22 ar
    36   19   24 1
    37   20   23 ar
    38   20   38 1
    39   21   39 1
    40   22   23 ar
    41   22   40 1
    42   23   41 1
    43   24   42 1
    44   24   43 1
    45   24   44 1
