@<TRIPOS>MOLECULE
DB00956
   43    47     0     0     0
SMALL
USER_CHARGES

@<TRIPOS>ATOM
      1 O1         -1.7407    1.3897   -1.4506 O.3       1 <0>        -0.4765
      2 O2         -1.6170    3.6661    0.0228 O.2       1 <0>        -0.2934
      3 O3         -4.1484   -0.0903   -0.7180 O.3       1 <0>        -0.4914
      4 N1          2.7967   -0.9653   -0.4391 N.3       1 <0>        -0.3018
      5 C1          0.5019    0.7848   -0.7739 C.3       1 <0>         0.0488
      6 C2          1.6144    1.0567    0.2448 C.3       1 <0>        -0.0111
      7 C3          2.1380   -0.3309    0.7287 C.3       1 <0>         0.0179
      8 C4         -0.4169    1.9474   -1.1801 C.3       1 <0>         0.1677
      9 C5          1.1185    0.0562   -1.9874 C.3       1 <0>        -0.0263
     10 C6         -0.5487   -0.0695   -0.1579 C.ar      1 <0>         0.0116
     11 C7          1.1635    1.9922    1.3736 C.3       1 <0>        -0.0410
     12 C8          1.0186   -1.1969    1.4069 C.3       1 <0>        -0.0113
     13 C9          1.9051   -1.2026   -1.5793 C.3       1 <0>        -0.0002
     14 C10        -0.3525   -1.0416    0.8036 C.ar      1 <0>        -0.0383
     15 C11         0.6157    3.2899    0.7908 C.3       1 <0>         0.0099
     16 C12        -0.5803    3.0114   -0.0917 C.2       1 <0>         0.1744
     17 C13        -1.7942    0.2830   -0.6361 C.ar      1 <0>         0.1670
     18 C14         3.5582   -2.1623   -0.0986 C.3       1 <0>        -0.0125
     19 C15        -1.4804   -1.7482    1.2212 C.ar      1 <0>        -0.0546
     20 C16        -2.9179   -0.4099   -0.2485 C.ar      1 <0>         0.1618
     21 C17        -2.7499   -1.4445    0.6832 C.ar      1 <0>        -0.0160
     22 C18        -5.2508   -0.8724   -0.2528 C.3       1 <0>         0.0790
     23 H1          2.4389    1.5785   -0.2658 H         1 <0>         0.0326
     24 H2          2.9182   -0.1492    1.4802 H         1 <0>         0.0469
     25 H3         -0.0580    2.4554   -2.0826 H         1 <0>         0.0823
     26 H4          1.7991    0.7453   -2.5056 H         1 <0>         0.0287
     27 H5          0.3506   -0.2290   -2.7181 H         1 <0>         0.0287
     28 H6          2.0161    2.2175    2.0249 H         1 <0>         0.0273
     29 H7          0.3996    1.5235    2.0041 H         1 <0>         0.0273
     30 H8          0.9465   -0.8760    2.4549 H         1 <0>         0.0329
     31 H9          1.2921   -2.2564    1.4294 H         1 <0>         0.0329
     32 H10         1.2077   -2.0220   -1.3658 H         1 <0>         0.0427
     33 H11         2.4965   -1.5218   -2.4467 H         1 <0>         0.0427
     34 H12         1.3717    3.8121    0.1949 H         1 <0>         0.0343
     35 H13         0.3060    3.9554    1.6038 H         1 <0>         0.0343
     36 H14         4.1829   -2.4659   -0.9462 H         1 <0>         0.0391
     37 H15         2.9207   -3.0117    0.1664 H         1 <0>         0.0391
     38 H16         4.2412   -1.9669    0.7353 H         1 <0>         0.0391
     39 H17        -1.3929   -2.5243    1.9770 H         1 <0>         0.0622
     40 H18        -3.5755   -2.0412    1.0594 H         1 <0>         0.0655
     41 H19        -6.1508   -0.4877   -0.7432 H         1 <0>         0.0660
     42 H20        -5.3957   -0.7556    0.8264 H         1 <0>         0.0660
     43 H21        -5.1476   -1.9229   -0.5444 H         1 <0>         0.0660
@<TRIPOS>BOND
     1    1    8 1
     2    1   17 1
     3    2   16 2
     4    3   20 1
     5    3   22 1
     6    4    7 1
     7    4   13 1
     8    4   18 1
     9    5    6 1
    10    5    8 1
    11    5    9 1
    12    5   10 1
    13    6    7 1
    14    6   11 1
    15    6   23 1
    16    7   12 1
    17    7   24 1
    18    8   16 1
    19    8   25 1
    20    9   13 1
    21    9   26 1
    22    9   27 1
    23   10   14 ar
    24   10   17 ar
    25   11   15 1
    26   11   28 1
    27   11   29 1
    28   12   14 1
    29   12   30 1
    30   12   31 1
    31   13   32 1
    32   13   33 1
    33   14   19 ar
    34   15   16 1
    35   15   34 1
    36   15   35 1
    37   17   20 ar
    38   18   36 1
    39   18   37 1
    40   18   38 1
    41   19   21 ar
    42   19   39 1
    43   20   21 ar
    44   21   40 1
    45   22   41 1
    46   22   42 1
    47   22   43 1
