@<TRIPOS>MOLECULE
DB00828
   15    15     0     0     0
SMALL
USER_CHARGES

@<TRIPOS>ATOM
      1 P1         -1.2945    0.0372    0.2769 P.3       1 <0>         0.3587
      2 O1          0.7060   -0.8965   -1.3948 O.3       1 <0>        -0.3557
      3 O2         -2.6946   -0.7121    0.0104 O.3       1 <0>        -0.3223
      4 O3         -1.1934    1.1819   -0.8512 O.3       1 <0>        -0.3223
      5 O4         -0.9726    0.4235    1.6862 O.2       1 <0>        -0.2560
      6 C1         -0.0302   -1.1791   -0.1939 C.3       1 <0>         0.1849
      7 C2          1.4038   -0.7258   -0.1543 C.3       1 <0>         0.0945
      8 C3          1.7603    0.6751    0.1664 C.3       1 <0>        -0.0356
      9 H1         -0.2305   -2.2146    0.0501 H         1 <0>         0.0750
     10 H2          2.1637   -1.4445    0.1186 H         1 <0>         0.0626
     11 H3          2.8172    0.8424   -0.0682 H         1 <0>         0.0255
     12 H4          1.1937    1.4151   -0.4029 H         1 <0>         0.0255
     13 H5          1.6315    0.8733    1.2343 H         1 <0>         0.0255
     14 H6         -3.5300   -0.2728    0.2772 H         1 <0>         0.2198
     15 H7         -1.7305    1.9969   -0.7547 H         1 <0>         0.2198
@<TRIPOS>BOND
     1    1    3 1
     2    1    4 1
     3    1    5 2
     4    1    6 1
     5    2    6 1
     6    2    7 1
     7    3   14 1
     8    4   15 1
     9    6    7 1
    10    6    9 1
    11    7    8 1
    12    7   10 1
    13    8   11 1
    14    8   12 1
    15    8   13 1
