@<TRIPOS>MOLECULE
DB00802
   62    64     0     0     0
SMALL
USER_CHARGES

@<TRIPOS>ATOM
      1 O1          2.1813   -1.6865    1.8776 O.3       1 <0>        -0.3808
      2 O2          3.7909   -2.0623   -1.5016 O.2       1 <0>        -0.2752
      3 O3         -5.2839    0.6311    1.5083 O.2       1 <0>        -0.2432
      4 N1         -1.1995    0.0608   -0.8777 N.3       1 <0>        -0.3004
      5 N2          2.9739   -0.1837   -0.3275 N.am      1 <0>        -0.2630
      6 N3         -4.7855    1.0515   -0.7510 N.am      1 <0>        -0.1923
      7 N4         -5.5487    1.1456   -1.8817 N.2       1 <0>        -0.0428
      8 N5         -6.8614    0.7303   -0.2325 N.am      1 <0>        -0.1938
      9 N6         -6.7669    0.9571   -1.5773 N.2       1 <0>        -0.0428
     10 C1          1.5967   -0.6315   -0.1875 C.3       1 <0>         0.0677
     11 C2          0.7858    0.4549    0.5453 C.3       1 <0>        -0.0160
     12 C3          0.9909   -0.8440   -1.5885 C.3       1 <0>        -0.0160
     13 C4         -0.7246    0.2057    0.5037 C.3       1 <0>         0.0010
     14 C5         -0.5261   -1.0509   -1.5603 C.3       1 <0>         0.0010
     15 C6          1.6067   -1.9436    0.6121 C.3       1 <0>         0.0691
     16 C7         -2.6502   -0.1244   -0.9043 C.3       1 <0>         0.0187
     17 C8          3.3482    1.1085    0.2301 C.ar      1 <0>         0.0370
     18 C9          3.9691   -0.9557   -0.9862 C.2       1 <0>         0.2201
     19 C10        -3.3574    1.2073   -0.7003 C.3       1 <0>         0.0611
     20 C11         5.3678   -0.3458   -0.9962 C.3       1 <0>         0.0217
     21 C12         3.2476    2.2602   -0.5505 C.ar      1 <0>        -0.0402
     22 C13         3.8065    1.1948    1.5447 C.ar      1 <0>        -0.0402
     23 C14         2.2284   -2.8582    2.6857 C.3       1 <0>         0.0365
     24 C15         6.3830   -1.2108   -1.7276 C.3       1 <0>        -0.0570
     25 C16         3.6056    3.4982   -0.0165 C.ar      1 <0>        -0.0600
     26 C17         4.1645    2.4327    2.0787 C.ar      1 <0>        -0.0600
     27 C18        -5.5993    0.7829    0.3394 C.2       1 <0>         0.3641
     28 C19         4.0640    3.5844    1.2981 C.ar      1 <0>        -0.0616
     29 C20        -8.1254    0.4826    0.4073 C.3       1 <0>         0.0456
     30 C21        -8.4548   -0.9957    0.4317 C.3       1 <0>        -0.0453
     31 H1          1.0809    0.5611    1.5961 H         1 <0>         0.0299
     32 H2          0.9072    1.4373    0.0744 H         1 <0>         0.0299
     33 H3          1.2119    0.0278   -2.2209 H         1 <0>         0.0299
     34 H4          1.4406   -1.7056   -2.0946 H         1 <0>         0.0299
     35 H5         -1.2014    1.0619    0.9928 H         1 <0>         0.0427
     36 H6         -0.9761   -0.6781    1.1034 H         1 <0>         0.0427
     37 H7         -0.7715   -2.0103   -1.0883 H         1 <0>         0.0427
     38 H8         -0.8717   -1.1094   -2.6000 H         1 <0>         0.0427
     39 H9          0.5887   -2.3215    0.7580 H         1 <0>         0.0581
     40 H10         2.1671   -2.7377    0.1086 H         1 <0>         0.0581
     41 H11        -2.9805   -0.8692   -0.1680 H         1 <0>         0.0445
     42 H12        -2.9619   -0.5101   -1.8848 H         1 <0>         0.0445
     43 H13        -3.1158    1.6428    0.2742 H         1 <0>         0.0524
     44 H14        -3.0677    1.9296   -1.4725 H         1 <0>         0.0524
     45 H15         5.7126   -0.2151    0.0343 H         1 <0>         0.0356
     46 H16         5.3367    0.6286   -1.4933 H         1 <0>         0.0356
     47 H17         2.8930    2.2039   -1.5763 H         1 <0>         0.0636
     48 H18         3.9000    0.3066    2.1627 H         1 <0>         0.0636
     49 H19         2.6788   -2.5938    3.6461 H         1 <0>         0.0523
     50 H20         2.8452   -3.6264    2.2096 H         1 <0>         0.0523
     51 H21         1.2189   -3.2402    2.8653 H         1 <0>         0.0523
     52 H22         7.3682   -0.7344   -1.7151 H         1 <0>         0.0234
     53 H23         6.4741   -2.1950   -1.2561 H         1 <0>         0.0234
     54 H24         6.0904   -1.3633   -2.7718 H         1 <0>         0.0234
     55 H25         3.5277    4.3947   -0.6245 H         1 <0>         0.0618
     56 H26         4.5235    2.4996    3.1014 H         1 <0>         0.0618
     57 H27         4.3433    4.5482    1.7135 H         1 <0>         0.0618
     58 H28        -8.9038    1.0453   -0.1183 H         1 <0>         0.0508
     59 H29        -8.0668    0.8555    1.4356 H         1 <0>         0.0508
     60 H30        -8.5188   -1.4007   -0.5837 H         1 <0>         0.0247
     61 H31        -7.6855   -1.5619    0.9675 H         1 <0>         0.0247
     62 H32        -9.4143   -1.1656    0.9295 H         1 <0>         0.0247
@<TRIPOS>BOND
     1    1   15 1
     2    1   23 1
     3    2   18 2
     4    3   27 2
     5    4   13 1
     6    4   14 1
     7    4   16 1
     8    5   10 1
     9    5   17 1
    10    5   18 am
    11    6    7 2
    12    6   19 1
    13    6   27 am
    14    7    9 1
    15    8    9 2
    16    8   27 am
    17    8   29 1
    18   10   11 1
    19   10   12 1
    20   10   15 1
    21   11   13 1
    22   11   31 1
    23   11   32 1
    24   12   14 1
    25   12   33 1
    26   12   34 1
    27   13   35 1
    28   13   36 1
    29   14   37 1
    30   14   38 1
    31   15   39 1
    32   15   40 1
    33   16   19 1
    34   16   41 1
    35   16   42 1
    36   17   21 ar
    37   17   22 ar
    38   18   20 1
    39   19   43 1
    40   19   44 1
    41   20   24 1
    42   20   45 1
    43   20   46 1
    44   21   25 ar
    45   21   47 1
    46   22   26 ar
    47   22   48 1
    48   23   49 1
    49   23   50 1
    50   23   51 1
    51   24   52 1
    52   24   53 1
    53   24   54 1
    54   25   28 ar
    55   25   55 1
    56   26   28 ar
    57   26   56 1
    58   28   57 1
    59   29   30 1
    60   29   58 1
    61   29   59 1
    62   30   60 1
    63   30   61 1
    64   30   62 1
