@<TRIPOS>MOLECULE
DB00180
   62    66     0     0     0
SMALL
USER_CHARGES

@<TRIPOS>ATOM
      1 F1         -3.8488    2.7946   -1.6460 F         1 <0>        -0.2407
      2 O1          2.7440    0.5077    0.9685 O.3       1 <0>        -0.3320
      3 O2          3.3279    2.0068   -0.7445 O.3       1 <0>        -0.3426
      4 O3         -1.2802   -2.6974   -0.1258 O.3       1 <0>        -0.3914
      5 O4          4.5096   -1.1765   -1.1967 O.2       1 <0>        -0.2918
      6 O5          4.8758   -2.7757    1.0189 O.3       1 <0>        -0.3874
      7 O6         -6.2598    1.5112    2.4260 O.2       1 <0>        -0.2879
      8 C1          1.1200   -0.7470   -0.4185 C.3       1 <0>         0.0121
      9 C2          0.3490    0.5652   -0.6840 C.3       1 <0>        -0.0267
     10 C3         -1.1456    0.3508   -0.9595 C.3       1 <0>        -0.0284
     11 C4          2.5546   -0.1788   -0.2661 C.3       1 <0>         0.1640
     12 C5         -1.7938   -0.3263    0.3001 C.3       1 <0>         0.0009
     13 C6          2.6554    0.9035   -1.3444 C.3       1 <0>         0.0987
     14 C7          1.2081    1.2830   -1.7272 C.3       1 <0>        -0.0196
     15 C8          0.5145   -1.3883    0.8446 C.3       1 <0>        -0.0177
     16 C9         -1.0127   -1.6052    0.7427 C.3       1 <0>         0.0600
     17 C10        -3.3597   -0.4838    0.1526 C.3       1 <0>         0.0158
     18 C11        -1.8311    1.6878   -1.2829 C.3       1 <0>        -0.0143
     19 C12         1.0805   -1.7361   -1.6156 C.3       1 <0>        -0.0561
     20 C13        -3.3389    1.5463   -1.4313 C.3       1 <0>         0.1235
     21 C14         3.3949    1.7434    0.6583 C.3       1 <0>         0.1663
     22 C15         3.6336   -1.2195   -0.3341 C.2       1 <0>         0.1931
     23 C16        -3.9280    0.8969   -0.2040 C.2       1 <0>        -0.0226
     24 C17        -3.7905   -1.4798   -0.9480 C.3       1 <0>        -0.0519
     25 C18        -3.9541   -1.0063    1.4525 C.2       1 <0>        -0.0701
     26 C19         3.5777   -2.3126    0.7119 C.3       1 <0>         0.1053
     27 C20         4.8574    1.6471    1.0760 C.3       1 <0>        -0.0108
     28 C21         2.7036    2.8816    1.4035 C.3       1 <0>        -0.0108
     29 C22        -4.8559    1.5293    0.5317 C.2       1 <0>        -0.0122
     30 C23        -4.8761   -0.3786    2.1884 C.2       1 <0>        -0.0180
     31 C24        -5.4018    0.9324    1.7680 C.2       1 <0>         0.1788
     32 H1          0.3967    1.1856    0.2245 H         1 <0>         0.0311
     33 H2         -1.2714   -0.2981   -1.8316 H         1 <0>         0.0308
     34 H3         -1.6411    0.3873    1.1283 H         1 <0>         0.0340
     35 H4          3.2020    0.6136   -2.2472 H         1 <0>         0.0631
     36 H5          0.9730    0.9106   -2.7307 H         1 <0>         0.0294
     37 H6          1.0449    2.3654   -1.7157 H         1 <0>         0.0294
     38 H7          0.7036   -0.7510    1.7172 H         1 <0>         0.0297
     39 H8          0.9801   -2.3565    1.0475 H         1 <0>         0.0297
     40 H9         -1.3604   -1.9069    1.7370 H         1 <0>         0.0596
     41 H10        -1.4269    2.1098   -2.2109 H         1 <0>         0.0299
     42 H11        -1.6123    2.4273   -0.5005 H         1 <0>         0.0299
     43 H12         1.4998   -2.7092   -1.3411 H         1 <0>         0.0236
     44 H13         0.0701   -1.9243   -1.9837 H         1 <0>         0.0236
     45 H14         1.6535   -1.3733   -2.4755 H         1 <0>         0.0236
     46 H15        -3.5821    0.9575   -2.3216 H         1 <0>         0.0699
     47 H16        -3.2499   -1.3298   -1.8872 H         1 <0>         0.0241
     48 H17        -3.6413   -2.5229   -0.6486 H         1 <0>         0.0241
     49 H18        -4.8604   -1.3792   -1.1742 H         1 <0>         0.0241
     50 H19        -3.6242   -1.9829    1.7999 H         1 <0>         0.0582
     51 H20        -0.8171   -3.4769    0.2252 H         1 <0>         0.2098
     52 H21         2.9810   -3.1529    0.3524 H         1 <0>         0.0637
     53 H22         3.1583   -1.9287    1.6439 H         1 <0>         0.0637
     54 H23         5.3784    0.8651    0.5141 H         1 <0>         0.0281
     55 H24         5.3885    2.5843    0.8771 H         1 <0>         0.0281
     56 H25         4.9519    1.3995    2.1385 H         1 <0>         0.0281
     57 H26         2.7057    2.7076    2.4845 H         1 <0>         0.0281
     58 H27         3.1814    3.8440    1.1915 H         1 <0>         0.0281
     59 H28         1.6573    2.9692    1.0921 H         1 <0>         0.0281
     60 H29        -5.2332    2.5095    0.2609 H         1 <0>         0.0656
     61 H30        -5.2661   -0.8180    3.0991 H         1 <0>         0.0653
     62 H31         5.2310   -3.2012    0.2197 H         1 <0>         0.2100
@<TRIPOS>BOND
     1    1   20 1
     2    2   11 1
     3    2   21 1
     4    3   13 1
     5    3   21 1
     6    4   16 1
     7    4   51 1
     8    5   22 2
     9    6   26 1
    10    6   62 1
    11    7   31 2
    12    8    9 1
    13    8   11 1
    14    8   15 1
    15    8   19 1
    16    9   10 1
    17    9   14 1
    18    9   32 1
    19   10   12 1
    20   10   18 1
    21   10   33 1
    22   11   13 1
    23   11   22 1
    24   12   16 1
    25   12   17 1
    26   12   34 1
    27   13   14 1
    28   13   35 1
    29   14   36 1
    30   14   37 1
    31   15   16 1
    32   15   38 1
    33   15   39 1
    34   16   40 1
    35   17   23 1
    36   17   24 1
    37   17   25 1
    38   18   20 1
    39   18   41 1
    40   18   42 1
    41   19   43 1
    42   19   44 1
    43   19   45 1
    44   20   23 1
    45   20   46 1
    46   21   27 1
    47   21   28 1
    48   22   26 1
    49   23   29 2
    50   24   47 1
    51   24   48 1
    52   24   49 1
    53   25   30 2
    54   25   50 1
    55   26   52 1
    56   26   53 1
    57   27   54 1
    58   27   55 1
    59   27   56 1
    60   28   57 1
    61   28   58 1
    62   28   59 1
    63   29   31 1
    64   29   60 1
    65   30   31 1
    66   30   61 1
