@<TRIPOS>MOLECULE
DB00947
   88    91     0     0     0
SMALL
USER_CHARGES

@<TRIPOS>ATOM
      1 S1          8.5382   -0.0104    1.2086 S.o       1 <0>         0.0222
      2 F1         13.8488   -0.7555    0.4210 F         1 <0>        -0.1958
      3 F2         13.7469    1.4192    0.5351 F         1 <0>        -0.1958
      4 F3         14.4465    1.5906   -2.1341 F         1 <0>        -0.1650
      5 F4         14.5520   -0.5865   -2.2437 F         1 <0>        -0.1650
      6 F5         15.8721    0.5033   -0.8914 F         1 <0>        -0.1650
      7 O1         -7.7457    4.5023   -0.7572 O.3       1 <0>        -0.3912
      8 O2         -5.9572   -6.3070   -0.1706 O.3       1 <0>        -0.5068
      9 O3          8.7038   -1.3804    1.7894 O.2       1 <0>        -0.2572
     10 C1         -5.6393    1.6252    0.0090 C.3       1 <0>        -0.0296
     11 C2         -6.9975    2.1670   -0.4847 C.3       1 <0>        -0.0030
     12 C3         -5.6994    0.1329    0.3450 C.3       1 <0>        -0.0277
     13 C4         -6.0620   -0.6522   -0.9530 C.3       1 <0>        -0.0122
     14 C5         -7.3621    1.4295   -1.7791 C.3       1 <0>        -0.0445
     15 C6         -6.6200    3.6506   -0.6664 C.3       1 <0>         0.0609
     16 C7         -5.2333    2.6207    1.0916 C.3       1 <0>        -0.0470
     17 C8         -4.4182   -0.4238    0.9984 C.3       1 <0>        -0.0334
     18 C9         -7.3693   -0.0997   -1.5866 C.3       1 <0>        -0.0453
     19 C10        -5.7595    3.9707    0.5712 C.3       1 <0>        -0.0261
     20 C11        -8.1638    2.0304    0.5272 C.3       1 <0>        -0.0569
     21 C12        -6.0577   -2.1599   -0.7172 C.ar      1 <0>        -0.0406
     22 C13        -4.6847   -1.8749    1.4272 C.3       1 <0>        -0.0242
     23 C14        -3.1569   -0.3258    0.1324 C.3       1 <0>        -0.0496
     24 C15        -5.3733   -2.7213    0.3827 C.ar      1 <0>        -0.0402
     25 C16        -1.9008   -0.2977    0.9962 C.3       1 <0>        -0.0528
     26 C17        -6.6583   -3.0340   -1.6415 C.ar      1 <0>        -0.0546
     27 C18        -5.3603   -4.1163    0.5610 C.ar      1 <0>        -0.0167
     28 C19        -0.6477   -0.1701    0.1276 C.3       1 <0>        -0.0530
     29 C20        -6.6280   -4.4180   -1.4583 C.ar      1 <0>        -0.0199
     30 C21        -5.9842   -4.9595   -0.3537 C.ar      1 <0>         0.1171
     31 C22         0.6576   -0.2249    0.9274 C.3       1 <0>        -0.0531
     32 C23         1.9477   -0.1572    0.1029 C.3       1 <0>        -0.0531
     33 C24         3.2161   -0.2389    0.9557 C.3       1 <0>        -0.0530
     34 C25         4.5052   -0.1834    0.1283 C.3       1 <0>        -0.0522
     35 C26         5.7747   -0.1816    0.9881 C.3       1 <0>        -0.0417
     36 C27         7.0506   -0.0468    0.1631 C.3       1 <0>         0.0234
     37 C28         9.7074    0.1499   -0.1612 C.3       1 <0>         0.0236
     38 C29        11.1517    0.2171    0.3233 C.3       1 <0>        -0.0360
     39 C30        12.1643    0.3243   -0.8242 C.3       1 <0>         0.0206
     40 C31        13.5971    0.3634   -0.3047 C.3       1 <0>         0.3416
     41 C32        14.6232    0.4687   -1.4045 C.3       1 <0>         0.4538
     42 H1         -4.9158    1.7518   -0.8113 H         1 <0>         0.0310
     43 H2         -6.5022   -0.0246    1.0781 H         1 <0>         0.0312
     44 H3         -5.2639   -0.4739   -1.6891 H         1 <0>         0.0352
     45 H4         -8.3401    1.7586   -2.1505 H         1 <0>         0.0272
     46 H5         -6.6366    1.6742   -2.5658 H         1 <0>         0.0272
     47 H6         -6.0200    3.7871   -1.5750 H         1 <0>         0.0599
     48 H7         -4.1489    2.6462    1.2393 H         1 <0>         0.0269
     49 H8         -5.6938    2.3771    2.0554 H         1 <0>         0.0269
     50 H9         -4.2417    0.1522    1.9170 H         1 <0>         0.0307
     51 H10        -7.5307   -0.5445   -2.5751 H         1 <0>         0.0271
     52 H11        -8.2307   -0.3971   -0.9763 H         1 <0>         0.0271
     53 H12        -6.3310    4.4911    1.3480 H         1 <0>         0.0290
     54 H13        -4.9303    4.6299    0.2909 H         1 <0>         0.0290
     55 H14        -8.3813    0.9911    0.7865 H         1 <0>         0.0236
     56 H15        -9.0869    2.4490    0.1096 H         1 <0>         0.0236
     57 H16        -7.9678    2.5586    1.4655 H         1 <0>         0.0236
     58 H17        -3.7520   -2.3590    1.7382 H         1 <0>         0.0316
     59 H18        -5.3393   -1.8612    2.3095 H         1 <0>         0.0316
     60 H19        -3.1656    0.5921   -0.4630 H         1 <0>         0.0268
     61 H20        -3.1023   -1.1571   -0.5805 H         1 <0>         0.0268
     62 H21        -7.4180    5.4174   -0.7818 H         1 <0>         0.2098
     63 H22        -1.8287   -1.2105    1.5973 H         1 <0>         0.0265
     64 H23        -1.9413    0.5472    1.6942 H         1 <0>         0.0265
     65 H24        -7.1549   -2.6557   -2.5299 H         1 <0>         0.0622
     66 H25        -4.8516   -4.5402    1.4249 H         1 <0>         0.0657
     67 H26        -0.6845    0.7723   -0.4326 H         1 <0>         0.0265
     68 H27        -0.6376   -0.9786   -0.6141 H         1 <0>         0.0265
     69 H28        -7.1075   -5.0658   -2.1872 H         1 <0>         0.0654
     70 H29         0.6590    0.5989    1.6526 H         1 <0>         0.0265
     71 H30         0.6690   -1.1524    1.5142 H         1 <0>         0.0265
     72 H31         1.9495   -0.9774   -0.6253 H         1 <0>         0.0265
     73 H32         1.9558    0.7768   -0.4717 H         1 <0>         0.0265
     74 H33        -5.4665   -6.5050    0.6455 H         1 <0>         0.2921
     75 H34         3.2038   -1.1682    1.5384 H         1 <0>         0.0265
     76 H35         3.2149    0.5876    1.6769 H         1 <0>         0.0265
     77 H36         4.5331   -1.0380   -0.5587 H         1 <0>         0.0266
     78 H37         4.4926    0.7221   -0.4910 H         1 <0>         0.0266
     79 H38         5.8100   -1.1061    1.5781 H         1 <0>         0.0274
     80 H39         5.7193    0.6443    1.7090 H         1 <0>         0.0274
     81 H40         7.1405   -0.8858   -0.5349 H         1 <0>         0.0401
     82 H41         7.0257    0.8834   -0.4140 H         1 <0>         0.0401
     83 H42         9.4593    1.0615   -0.7148 H         1 <0>         0.0401
     84 H43         9.5742   -0.7064   -0.8306 H         1 <0>         0.0401
     85 H44        11.3776   -0.6760    0.9199 H         1 <0>         0.0276
     86 H45        11.2710    1.0765    0.9955 H         1 <0>         0.0276
     87 H46        12.0377   -0.5362   -1.4916 H         1 <0>         0.0326
     88 H47        11.9537    1.2330   -1.4000 H         1 <0>         0.0326
@<TRIPOS>BOND
     1    1    9 2
     2    1   36 1
     3    1   37 1
     4    2   40 1
     5    3   40 1
     6    4   41 1
     7    5   41 1
     8    6   41 1
     9    7   15 1
    10    7   62 1
    11    8   30 1
    12    8   74 1
    13   10   11 1
    14   10   12 1
    15   10   16 1
    16   10   42 1
    17   11   14 1
    18   11   15 1
    19   11   20 1
    20   12   13 1
    21   12   17 1
    22   12   43 1
    23   13   18 1
    24   13   21 1
    25   13   44 1
    26   14   18 1
    27   14   45 1
    28   14   46 1
    29   15   19 1
    30   15   47 1
    31   16   19 1
    32   16   48 1
    33   16   49 1
    34   17   22 1
    35   17   23 1
    36   17   50 1
    37   18   51 1
    38   18   52 1
    39   19   53 1
    40   19   54 1
    41   20   55 1
    42   20   56 1
    43   20   57 1
    44   21   24 ar
    45   21   26 ar
    46   22   24 1
    47   22   58 1
    48   22   59 1
    49   23   25 1
    50   23   60 1
    51   23   61 1
    52   24   27 ar
    53   25   28 1
    54   25   63 1
    55   25   64 1
    56   26   29 ar
    57   26   65 1
    58   27   30 ar
    59   27   66 1
    60   28   31 1
    61   28   67 1
    62   28   68 1
    63   29   30 ar
    64   29   69 1
    65   31   32 1
    66   31   70 1
    67   31   71 1
    68   32   33 1
    69   32   72 1
    70   32   73 1
    71   33   34 1
    72   33   75 1
    73   33   76 1
    74   34   35 1
    75   34   77 1
    76   34   78 1
    77   35   36 1
    78   35   79 1
    79   35   80 1
    80   36   81 1
    81   36   82 1
    82   37   38 1
    83   37   83 1
    84   37   84 1
    85   38   39 1
    86   38   85 1
    87   38   86 1
    88   39   40 1
    89   39   87 1
    90   39   88 1
    91   40   41 1
