@<TRIPOS>MOLECULE
DB00301
   47    50     0     0     0
SMALL
USER_CHARGES

@<TRIPOS>ATOM
      1 Cl1         2.8165    2.0358   -2.5452 Cl        1 <0>        -0.0828
      2 S1         -0.9047   -1.1068    1.1691 S.3       1 <0>        -0.1273
      3 F1          1.6357    1.6301    2.4183 F         1 <0>        -0.2048
      4 O1         -0.9799   -0.2229   -3.1466 O.2       1 <0>        -0.2734
      5 O2         -5.0368    0.2773   -0.7052 O.3       1 <0>        -0.4793
      6 O3         -4.4003   -1.4970   -1.9868 O.2       1 <0>        -0.2489
      7 O4          2.3017   -2.5115    0.2936 O.2       1 <0>        -0.2700
      8 O5          5.3331    0.3867    0.7345 O.3       1 <0>        -0.3586
      9 N1         -1.8637   -1.2869   -1.2342 N.am      1 <0>        -0.2708
     10 N2          1.2783   -0.8838   -0.9783 N.am      1 <0>        -0.2976
     11 N3          4.4872    1.4839    0.6264 N.2       1 <0>        -0.0771
     12 C1         -0.9347   -2.0522   -0.3975 C.3       1 <0>         0.1005
     13 C2         -2.6719   -0.5714    0.9248 C.3       1 <0>         0.0417
     14 C3         -2.7817   -0.3621   -0.6009 C.3       1 <0>         0.1379
     15 C4          0.1582   -1.7243   -1.4239 C.3       1 <0>         0.1279
     16 C5         -0.9404   -0.9536   -2.1828 C.2       1 <0>         0.2402
     17 C6         -3.5810   -1.6746    1.4834 C.3       1 <0>        -0.0484
     18 C7         -2.9054    0.7352    1.6854 C.3       1 <0>        -0.0484
     19 C8         -4.1352   -0.6137   -1.1850 C.2       1 <0>         0.3269
     20 C9          2.2886   -1.3568   -0.1319 C.2       1 <0>         0.2502
     21 C10         3.3572   -0.4051    0.2005 C.2       1 <0>         0.1061
     22 C11         3.2967    0.9717    0.3018 C.2       1 <0>         0.1298
     23 C12         4.6328   -0.7466    0.4736 C.2       1 <0>         0.1469
     24 C13         2.1627    1.8370    0.1066 C.ar      1 <0>         0.0578
     25 C14         5.3852   -2.0066    0.5461 C.3       1 <0>        -0.0029
     26 C15         1.8580    2.3726   -1.1451 C.ar      1 <0>         0.0530
     27 C16         1.3592    2.1358    1.2070 C.ar      1 <0>         0.1341
     28 C17         0.7500    3.2066   -1.2958 C.ar      1 <0>        -0.0426
     29 C18         0.2513    2.9699    1.0561 C.ar      1 <0>        -0.0257
     30 C19        -0.0532    3.5054   -0.1953 C.ar      1 <0>        -0.0576
     31 H1         -1.2110   -3.1071   -0.3118 H         1 <0>         0.0640
     32 H2         -2.4734    0.6504   -0.8944 H         1 <0>         0.0631
     33 H3          0.5136   -2.5945   -1.9889 H         1 <0>         0.0622
     34 H4         -3.4690   -2.6194    0.9395 H         1 <0>         0.0244
     35 H5         -3.3689   -1.8700    2.5415 H         1 <0>         0.0244
     36 H6         -4.6366   -1.3875    1.4233 H         1 <0>         0.0244
     37 H7         -2.7028    0.6202    2.7566 H         1 <0>         0.0244
     38 H8         -2.2735    1.5446    1.3084 H         1 <0>         0.0244
     39 H9         -3.9450    1.0667    1.5885 H         1 <0>         0.0244
     40 H10         1.3768    0.0343   -1.3920 H         1 <0>         0.1499
     41 H11        -5.9326    0.1282   -1.0763 H         1 <0>         0.2951
     42 H12         6.4632   -1.8264    0.6047 H         1 <0>         0.0309
     43 H13         5.0895   -2.5784    1.4311 H         1 <0>         0.0309
     44 H14         5.1978   -2.6218   -0.3396 H         1 <0>         0.0309
     45 H15         0.4973    3.6311   -2.2641 H         1 <0>         0.0632
     46 H16        -0.3724    3.2036    1.9137 H         1 <0>         0.0646
     47 H17        -0.9165    4.1537   -0.3126 H         1 <0>         0.0619
@<TRIPOS>BOND
     1    1   26 1
     2    2   12 1
     3    2   13 1
     4    3   27 1
     5    4   16 2
     6    5   19 1
     7    5   41 1
     8    6   19 2
     9    7   20 2
    10    8   11 1
    11    8   23 1
    12    9   12 1
    13    9   14 1
    14    9   16 am
    15   10   15 1
    16   10   20 am
    17   10   40 1
    18   11   22 2
    19   12   15 1
    20   12   31 1
    21   13   14 1
    22   13   17 1
    23   13   18 1
    24   14   19 1
    25   14   32 1
    26   15   16 1
    27   15   33 1
    28   17   34 1
    29   17   35 1
    30   17   36 1
    31   18   37 1
    32   18   38 1
    33   18   39 1
    34   20   21 1
    35   21   22 1
    36   21   23 2
    37   22   24 1
    38   23   25 1
    39   24   26 ar
    40   24   27 ar
    41   25   42 1
    42   25   43 1
    43   25   44 1
    44   26   28 ar
    45   27   29 ar
    46   28   30 ar
    47   28   45 1
    48   29   30 ar
    49   29   46 1
    50   30   47 1
