@<TRIPOS>MOLECULE
DB00592
   16    16     0     0     0
SMALL
USER_CHARGES

@<TRIPOS>ATOM
      1 N1          0.0004   -1.3548   -0.5023 N.3       1 <0>        -0.3136
      2 N2         -0.0003    1.3602    0.5088 N.3       1 <0>        -0.3136
      3 C1         -1.2041   -0.7616    0.0784 C.3       1 <0>         0.0085
      4 C2          1.2045   -0.7610    0.0785 C.3       1 <0>         0.0085
      5 C3         -1.2012    0.7590   -0.0772 C.3       1 <0>         0.0085
      6 C4          1.2008    0.7595   -0.0773 C.3       1 <0>         0.0085
      7 H1         -1.2825   -1.0352    1.1382 H         1 <0>         0.0436
      8 H2         -2.0835   -1.1756   -0.4268 H         1 <0>         0.0436
      9 H3          2.0842   -1.1745   -0.4264 H         1 <0>         0.0436
     10 H4          1.2830   -1.0345    1.1383 H         1 <0>         0.0436
     11 H5         -1.2756    1.0323   -1.1374 H         1 <0>         0.0436
     12 H6         -2.0832    1.1741    0.4228 H         1 <0>         0.0436
     13 H7          2.0826    1.1752    0.4224 H         1 <0>         0.0436
     14 H8          1.2748    1.0328   -1.1375 H         1 <0>         0.0436
     15 H9          0.0007   -2.3603   -0.3344 H         1 <0>         0.1220
     16 H10        -0.0005    2.3642    0.3318 H         1 <0>         0.1220
@<TRIPOS>BOND
     1    1    3 1
     2    1    4 1
     3    1   15 1
     4    2    5 1
     5    2    6 1
     6    2   16 1
     7    3    5 1
     8    3    7 1
     9    3    8 1
    10    4    6 1
    11    4    9 1
    12    4   10 1
    13    5   11 1
    14    5   12 1
    15    6   13 1
    16    6   14 1
