@<TRIPOS>MOLECULE
DB00295
   40    44     0     0     0
SMALL
USER_CHARGES

@<TRIPOS>ATOM
      1 O1         -2.5015    0.0717   -1.1828 O.3       1 <0>        -0.4811
      2 O2         -3.7026    1.7080    0.4601 O.3       1 <0>        -0.3841
      3 O3         -3.6041   -2.5963   -0.8723 O.3       1 <0>        -0.5033
      4 N1          2.6516    0.6105   -0.3618 N.3       1 <0>        -0.3015
      5 C1         -0.2420    0.7326   -0.5586 C.3       1 <0>         0.0480
      6 C2          0.5356    1.3617    0.6075 C.3       1 <0>         0.0064
      7 C3          1.7977    0.4697    0.8425 C.3       1 <0>         0.0213
      8 C4         -1.6809    1.2363   -0.8186 C.3       1 <0>         0.1399
      9 C5          0.6351    0.7503   -1.8260 C.3       1 <0>        -0.0263
     10 C6         -0.5860   -0.6731   -0.1911 C.ar      1 <0>         0.0116
     11 C7          1.4338   -1.0064    1.2241 C.3       1 <0>        -0.0110
     12 C8          2.0232    0.1301   -1.5965 C.3       1 <0>        -0.0001
     13 C9          0.1818   -1.5319    0.5744 C.ar      1 <0>        -0.0383
     14 C10        -2.3131    2.0120    0.3664 C.3       1 <0>         0.1110
     15 C11        -0.3384    1.5468    1.8217 C.2       1 <0>        -0.0799
     16 C12        -1.8513   -0.9966   -0.6268 C.ar      1 <0>         0.1663
     17 C13        -1.6452    1.8250    1.7028 C.2       1 <0>        -0.0559
     18 C14         3.9898    0.0536   -0.1933 C.3       1 <0>        -0.0124
     19 C15        -0.3230   -2.8151    0.7918 C.ar      1 <0>        -0.0546
     20 C16        -2.3671   -2.2589   -0.4319 C.ar      1 <0>         0.1588
     21 C17        -1.5815   -3.1799    0.2729 C.ar      1 <0>        -0.0162
     22 H1          0.8756    2.3699    0.3266 H         1 <0>         0.0368
     23 H2          2.3580    0.8983    1.6850 H         1 <0>         0.0472
     24 H3         -1.7051    1.8971   -1.6949 H         1 <0>         0.0772
     25 H4          0.7658    1.7921   -2.1487 H         1 <0>         0.0287
     26 H5          0.1462    0.2256   -2.6570 H         1 <0>         0.0287
     27 H6          1.2663   -1.0308    2.3095 H         1 <0>         0.0329
     28 H7          2.2651   -1.6902    1.0269 H         1 <0>         0.0329
     29 H8          1.9464   -0.9643   -1.5976 H         1 <0>         0.0427
     30 H9          2.6525    0.3939   -2.4559 H         1 <0>         0.0427
     31 H10        -2.2452    3.0858    0.1481 H         1 <0>         0.0675
     32 H11         0.1111    1.4948    2.8084 H         1 <0>         0.0573
     33 H12        -2.2317    1.9970    2.6007 H         1 <0>         0.0596
     34 H13         3.9947   -1.0401   -0.1509 H         1 <0>         0.0391
     35 H14         4.4614    0.4386    0.7175 H         1 <0>         0.0391
     36 H15         4.6328    0.3577   -1.0270 H         1 <0>         0.0391
     37 H16         0.2372   -3.5327    1.3852 H         1 <0>         0.0622
     38 H17        -1.9584   -4.1830    0.4589 H         1 <0>         0.0655
     39 H18        -4.0954    1.8657   -0.4156 H         1 <0>         0.2104
     40 H19        -3.9893   -1.8251   -1.3235 H         1 <0>         0.2923
@<TRIPOS>BOND
     1    1    8 1
     2    1   16 1
     3    2   14 1
     4    2   39 1
     5    3   20 1
     6    3   40 1
     7    4    7 1
     8    4   12 1
     9    4   18 1
    10    5    6 1
    11    5    8 1
    12    5    9 1
    13    5   10 1
    14    6    7 1
    15    6   15 1
    16    6   22 1
    17    7   11 1
    18    7   23 1
    19    8   14 1
    20    8   24 1
    21    9   12 1
    22    9   25 1
    23    9   26 1
    24   10   13 ar
    25   10   16 ar
    26   11   13 1
    27   11   27 1
    28   11   28 1
    29   12   29 1
    30   12   30 1
    31   13   19 ar
    32   14   17 1
    33   14   31 1
    34   15   17 2
    35   15   32 1
    36   16   20 ar
    37   17   33 1
    38   18   34 1
    39   18   35 1
    40   18   36 1
    41   19   21 ar
    42   19   37 1
    43   20   21 ar
    44   21   38 1
