@<TRIPOS>MOLECULE
DB00673
   58    61     0     0     0
SMALL
USER_CHARGES

@<TRIPOS>ATOM
      1 F1         -1.9813    4.3631    0.2775 F         1 <0>        -0.2055
      2 F2         -2.7789    1.9567   -3.1282 F         1 <0>        -0.1659
      3 F3         -4.9275    1.8315   -2.8595 F         1 <0>        -0.1659
      4 F4         -3.7349    3.0491   -1.5091 F         1 <0>        -0.1659
      5 F5         -4.9991   -1.9730    2.4803 F         1 <0>        -0.1659
      6 F6         -5.3810    0.1577    2.6150 F         1 <0>        -0.1659
      7 F7         -6.5588   -1.0716    1.2623 F         1 <0>        -0.1659
      8 O1          1.2154   -2.6388    1.1267 O.3       1 <0>        -0.3481
      9 O2          0.0532   -1.4573   -0.5561 O.3       1 <0>        -0.3418
     10 O3          7.9372    1.0680   -0.1795 O.2       1 <0>        -0.2432
     11 N1          2.5505   -0.1653    0.5462 N.3       1 <0>        -0.2818
     12 N2          4.6917    0.7077   -1.1140 N.pl3     1 <0>        -0.2819
     13 N3          5.8186    1.0856    0.7931 N.2       1 <0>        -0.1764
     14 N4          6.0089    0.7465   -1.4337 N.am      1 <0>        -0.2483
     15 C1          1.2200   -0.1940    1.2083 C.3       1 <0>         0.0875
     16 C2          0.4414   -1.4761    0.8161 C.3       1 <0>         0.1793
     17 C3          3.2821   -1.4119    0.8403 C.3       1 <0>         0.0236
     18 C4          2.4663   -2.6332    0.4423 C.3       1 <0>         0.0635
     19 C5          0.3561    1.0371    0.9568 C.ar      1 <0>        -0.0253
     20 C6          3.3653    0.9740    0.9886 C.3       1 <0>         0.0592
     21 C7         -1.1521   -2.1774   -0.7606 C.3       1 <0>         0.0839
     22 C8          4.6448    0.9143    0.2322 C.2       1 <0>         0.1411
     23 C9          0.4024    1.6716   -0.2800 C.ar      1 <0>        -0.0542
     24 C10        -0.4723    1.5159    1.9666 C.ar      1 <0>        -0.0542
     25 C11        -2.3264   -1.2467   -0.5733 C.ar      1 <0>        -0.0180
     26 C12        -1.1370   -2.8086   -2.1483 C.3       1 <0>        -0.0344
     27 C13        -0.3885    2.7974   -0.5098 C.ar      1 <0>        -0.0261
     28 C14        -1.2633    2.6416    1.7367 C.ar      1 <0>        -0.0261
     29 C15        -3.2267   -1.4875    0.4521 C.ar      1 <0>        -0.0445
     30 C16        -2.4819   -0.1690   -1.4302 C.ar      1 <0>        -0.0445
     31 C17        -1.2214    3.2824    0.4986 C.ar      1 <0>         0.1234
     32 C18        -4.3114   -0.6279    0.6252 C.ar      1 <0>         0.0557
     33 C19        -3.5666    0.6908   -1.2571 C.ar      1 <0>         0.0557
     34 C20        -4.4815    0.4612   -0.2296 C.ar      1 <0>        -0.0385
     35 C21         6.7190    0.9759   -0.2649 C.2       1 <0>         0.3620
     36 C22        -3.7482    1.8554   -2.1710 C.3       1 <0>         0.4174
     37 C23        -5.2898   -0.8733    1.7238 C.3       1 <0>         0.4174
     38 H1          1.4125   -0.2513    2.2909 H         1 <0>         0.0563
     39 H2         -0.4452   -1.5208    1.4617 H         1 <0>         0.0929
     40 H3          4.2320   -1.4855    0.3021 H         1 <0>         0.0449
     41 H4          3.5036   -1.4709    1.9148 H         1 <0>         0.0449
     42 H5          3.0008   -3.5451    0.7281 H         1 <0>         0.0573
     43 H6          2.3027   -2.6777   -0.6410 H         1 <0>         0.0573
     44 H7          3.5657    0.9481    2.0663 H         1 <0>         0.0507
     45 H8          2.9060    1.9377    0.7497 H         1 <0>         0.0507
     46 H9         -1.2152   -3.0153   -0.0518 H         1 <0>         0.0644
     47 H10         1.0302    1.3049   -1.0872 H         1 <0>         0.0622
     48 H11        -0.5162    1.0232    2.9338 H         1 <0>         0.0622
     49 H12        -0.3139   -3.5287   -2.2210 H         1 <0>         0.0258
     50 H13        -2.0744   -3.3313   -2.3645 H         1 <0>         0.0258
     51 H14        -0.9602   -2.0682   -2.9358 H         1 <0>         0.0258
     52 H15        -0.3607    3.2934   -1.4756 H         1 <0>         0.0646
     53 H16        -1.9134    3.0182    2.5208 H         1 <0>         0.0646
     54 H17         3.9514    0.5730   -1.7880 H         1 <0>         0.1882
     55 H18        -3.0883   -2.3373    1.1150 H         1 <0>         0.0627
     56 H19        -1.7636    0.0137   -2.2241 H         1 <0>         0.0627
     57 H20         6.3287    0.6159   -2.3838 H         1 <0>         0.1915
     58 H21        -5.3266    1.1319   -0.0944 H         1 <0>         0.0629
@<TRIPOS>BOND
     1    1   31 1
     2    2   36 1
     3    3   36 1
     4    4   36 1
     5    5   37 1
     6    6   37 1
     7    7   37 1
     8    8   16 1
     9    8   18 1
    10    9   16 1
    11    9   21 1
    12   10   35 2
    13   11   15 1
    14   11   17 1
    15   11   20 1
    16   12   14 2
    17   12   22 1
    18   12   54 1
    19   13   22 2
    20   13   35 1
    21   14   35 am
    22   14   57 1
    23   15   16 1
    24   15   19 1
    25   15   38 1
    26   16   39 1
    27   17   18 1
    28   17   40 1
    29   17   41 1
    30   18   42 1
    31   18   43 1
    32   19   23 ar
    33   19   24 ar
    34   20   22 1
    35   20   44 1
    36   20   45 1
    37   21   25 1
    38   21   26 1
    39   21   46 1
    40   23   27 ar
    41   23   47 1
    42   24   28 ar
    43   24   48 1
    44   25   29 ar
    45   25   30 ar
    46   26   49 1
    47   26   50 1
    48   26   51 1
    49   27   31 ar
    50   27   52 1
    51   28   31 ar
    52   28   53 1
    53   29   32 ar
    54   29   55 1
    55   30   33 ar
    56   30   56 1
    57   32   34 ar
    58   32   37 1
    59   33   34 ar
    60   33   36 1
    61   34   58 1
