@<TRIPOS>MOLECULE
DB00637
   65    69     0     0     0
SMALL
USER_CHARGES

@<TRIPOS>ATOM
      1 F1          0.3232   -4.9064   -0.4359 F         1 <0>        -0.2055
      2 O1         -7.8606   -1.9722   -0.3918 O.3       1 <0>        -0.4951
      3 N1         -1.2538    2.1146    0.2407 N.3       1 <0>        -0.3019
      4 N2          2.3302    1.5509    0.7256 N.pl3     1 <0>        -0.3118
      5 N3          4.1026    0.0081    0.6554 N.pl3     1 <0>        -0.3075
      6 N4          4.2166    1.7225   -0.7546 N.2       1 <0>        -0.2144
      7 C1          1.6177    2.7445    0.3118 C.3       1 <0>         0.0256
      8 C2          0.8617    2.4823   -0.9921 C.3       1 <0>        -0.0216
      9 C3          0.6472    3.1865    1.4092 C.3       1 <0>        -0.0216
     10 C4         -0.3557    1.5746   -0.7884 C.3       1 <0>         0.0006
     11 C5         -0.5621    2.2534    1.5288 C.3       1 <0>         0.0006
     12 C6         -2.4371    1.2665    0.3839 C.3       1 <0>         0.0029
     13 C7         -3.2390    1.2209   -0.9173 C.3       1 <0>        -0.0149
     14 C8          3.5158    1.1478    0.1909 C.cat     1 <0>         0.1971
     15 C9         -4.4741    0.3674   -0.7765 C.ar      1 <0>        -0.0459
     16 C10         5.2708   -0.1679   -0.0411 C.ar      1 <0>         0.0704
     17 C11         3.6025   -0.8682    1.6925 C.3       1 <0>         0.0514
     18 C12         5.3190    0.9149   -0.9149 C.ar      1 <0>         0.0909
     19 C13         6.2591   -1.1512    0.0163 C.ar      1 <0>        -0.0360
     20 C14         2.7249   -1.9493    1.1220 C.ar      1 <0>        -0.0275
     21 C15        -4.4030   -0.9863   -1.0675 C.ar      1 <0>        -0.0551
     22 C16        -5.6607    0.9511   -0.3591 C.ar      1 <0>        -0.0551
     23 C17         6.4107    1.0402   -1.7905 C.ar      1 <0>        -0.0342
     24 C18         7.3384   -1.0107   -0.8622 C.ar      1 <0>        -0.0597
     25 C19         7.4149    0.0646   -1.7504 C.ar      1 <0>        -0.0596
     26 C20        -5.5460   -1.7755   -0.9380 C.ar      1 <0>        -0.0197
     27 C21        -6.8035    0.1620   -0.2293 C.ar      1 <0>        -0.0197
     28 C22         3.2917   -3.1531    0.7266 C.ar      1 <0>        -0.0542
     29 C23         1.3599   -1.7281    0.9994 C.ar      1 <0>        -0.0542
     30 C24        -6.7463   -1.2013   -0.5189 C.ar      1 <0>         0.1201
     31 C25         2.4777   -4.1552    0.1984 C.ar      1 <0>        -0.0261
     32 C26         0.5461   -2.7302    0.4713 C.ar      1 <0>        -0.0261
     33 C27         1.1049   -3.9438    0.0707 C.ar      1 <0>         0.1234
     34 C28        -9.0544   -1.3216    0.0410 C.3       1 <0>         0.0788
     35 H1          2.3419    3.5537    0.1536 H         1 <0>         0.0499
     36 H2          1.5211    2.0406   -1.7487 H         1 <0>         0.0295
     37 H3          0.5203    3.4433   -1.3999 H         1 <0>         0.0295
     38 H4          0.2910    4.2001    1.1821 H         1 <0>         0.0295
     39 H5          1.1613    3.2415    2.3766 H         1 <0>         0.0295
     40 H6         -0.8374    1.5328   -1.7685 H         1 <0>         0.0427
     41 H7         -0.0314    0.5573   -0.5404 H         1 <0>         0.0427
     42 H8         -1.2463    2.6885    2.2680 H         1 <0>         0.0427
     43 H9         -0.2542    1.2760    1.9194 H         1 <0>         0.0427
     44 H10        -3.0809    1.6712    1.1759 H         1 <0>         0.0430
     45 H11        -2.1571    0.2504    0.6944 H         1 <0>         0.0430
     46 H12         1.8978    1.0294    1.4795 H         1 <0>         0.1491
     47 H13        -3.5260    2.2352   -1.2253 H         1 <0>         0.0326
     48 H14        -2.6691    0.8028   -1.7530 H         1 <0>         0.0326
     49 H15         4.4613   -1.3060    2.2161 H         1 <0>         0.0542
     50 H16         3.0805   -0.2814    2.4558 H         1 <0>         0.0542
     51 H17         6.2187   -1.9802    0.7119 H         1 <0>         0.0639
     52 H18        -3.4726   -1.4440   -1.3915 H         1 <0>         0.0621
     53 H19        -5.7135    2.0117   -0.1298 H         1 <0>         0.0621
     54 H20         6.4794    1.8721   -2.4842 H         1 <0>         0.0639
     55 H21         8.1347   -1.7510   -0.8502 H         1 <0>         0.0618
     56 H22         8.2668    0.1472   -2.4205 H         1 <0>         0.0618
     57 H23        -5.4950   -2.8371   -1.1639 H         1 <0>         0.0654
     58 H24        -7.7020    0.6717    0.1012 H         1 <0>         0.0654
     59 H25         4.3545   -3.3423    0.8321 H         1 <0>         0.0622
     60 H26         0.8993   -0.8046    1.3285 H         1 <0>         0.0622
     61 H27         2.9119   -5.1015   -0.1105 H         1 <0>         0.0646
     62 H28        -0.5237   -2.5672    0.3767 H         1 <0>         0.0646
     63 H29        -9.3840   -0.5649   -0.6791 H         1 <0>         0.0660
     64 H30        -9.8396   -2.0834    0.0860 H         1 <0>         0.0660
     65 H31        -8.9465   -0.9137    1.0517 H         1 <0>         0.0660
@<TRIPOS>BOND
     1    1   33 1
     2    2   30 1
     3    2   34 1
     4    3   10 1
     5    3   11 1
     6    3   12 1
     7    4    7 1
     8    4   14 1
     9    4   46 1
    10    5   14 1
    11    5   16 2
    12    5   17 1
    13    6   14 1
    14    6   18 2
    15    7    8 1
    16    7    9 1
    17    7   35 1
    18    8   10 1
    19    8   36 1
    20    8   37 1
    21    9   11 1
    22    9   38 1
    23    9   39 1
    24   10   40 1
    25   10   41 1
    26   11   42 1
    27   11   43 1
    28   12   13 1
    29   12   44 1
    30   12   45 1
    31   13   15 1
    32   13   47 1
    33   13   48 1
    34   15   21 ar
    35   15   22 ar
    36   16   18 ar
    37   16   19 ar
    38   17   20 1
    39   17   49 1
    40   17   50 1
    41   18   23 ar
    42   19   24 ar
    43   19   51 1
    44   20   28 ar
    45   20   29 ar
    46   21   26 ar
    47   21   52 1
    48   22   27 ar
    49   22   53 1
    50   23   25 ar
    51   23   54 1
    52   24   25 ar
    53   24   55 1
    54   25   56 1
    55   26   30 ar
    56   26   57 1
    57   27   30 ar
    58   27   58 1
    59   28   31 ar
    60   28   59 1
    61   29   32 ar
    62   29   60 1
    63   31   33 ar
    64   31   61 1
    65   32   33 ar
    66   32   62 1
    67   34   63 1
    68   34   64 1
    69   34   65 1
