@<TRIPOS>MOLECULE
DB00782
   57    59     0     0     0
SMALL
USER_CHARGES

@<TRIPOS>ATOM
      1 O1         -0.5099   -0.8124    0.8708 O.3       1 <0>        -0.4586
      2 O2         -5.0906    0.7861   -0.7556 O.3       1 <0>        -0.4554
      3 O3         -1.3181   -0.2188   -1.2104 O.2       1 <0>        -0.2498
      4 N1          2.9368   -0.1050   -0.2942 N.4       1 <0>         0.2470
      5 C1          3.8113    1.1561   -0.3080 C.3       1 <0>        -0.0247
      6 C2          3.6872   -1.1982    0.4785 C.3       1 <0>        -0.0247
      7 C3          1.6202    0.1737    0.3328 C.3       1 <0>         0.0052
      8 C4          2.7605   -0.5795   -1.7431 C.3       1 <0>        -0.0407
      9 C5          3.1104    2.2196   -1.1380 C.3       1 <0>        -0.0218
     10 C6          5.1751    0.7909   -0.8720 C.3       1 <0>        -0.0218
     11 C7          2.8628   -2.4747    0.4300 C.3       1 <0>        -0.0218
     12 C8          3.9150   -0.7132    1.9012 C.3       1 <0>        -0.0218
     13 C9          0.7743   -1.0840    0.3005 C.3       1 <0>         0.1321
     14 C10        -2.7485   -0.1427    0.7274 C.3       1 <0>         0.1131
     15 C11        -1.4622   -0.3859   -0.0069 C.2       1 <0>         0.3194
     16 C12        -3.1429    1.3075    0.6220 C.ar      1 <0>         0.0131
     17 C13        -3.8232   -1.0637    0.2114 C.ar      1 <0>         0.0131
     18 C14        -4.2688    1.6851   -0.1174 C.ar      1 <0>         0.1327
     19 C15        -4.9115   -0.5541   -0.5045 C.ar      1 <0>         0.1327
     20 C16        -2.3780    2.3017    1.2502 C.ar      1 <0>        -0.0540
     21 C17        -3.7406   -2.4476    0.4274 C.ar      1 <0>        -0.0540
     22 C18        -4.6165    3.0333   -0.2408 C.ar      1 <0>        -0.0190
     23 C19        -5.8929   -1.4120   -1.0090 C.ar      1 <0>        -0.0190
     24 C20        -2.7296    3.6470    1.1323 C.ar      1 <0>        -0.0612
     25 C21        -4.7241   -3.3029   -0.0706 C.ar      1 <0>        -0.0612
     26 C22        -3.8468    4.0125    0.3848 C.ar      1 <0>        -0.0583
     27 C23        -5.7985   -2.7853   -0.7904 C.ar      1 <0>        -0.0583
     28 H1          3.8932    1.5439    0.7114 H         1 <0>         0.0846
     29 H2          4.6305   -1.4157   -0.0281 H         1 <0>         0.0846
     30 H3          1.7267    0.6024    1.3336 H         1 <0>         0.0849
     31 H4          1.0878    0.9221   -0.2605 H         1 <0>         0.0849
     32 H5          3.7225   -0.8237   -2.1932 H         1 <0>         0.0778
     33 H6          2.1609   -1.4813   -1.8280 H         1 <0>         0.0778
     34 H7          2.2291    0.1787   -2.3209 H         1 <0>         0.0778
     35 H8          3.7090    3.1395   -1.0839 H         1 <0>         0.0284
     36 H9          3.0523    1.9945   -2.2058 H         1 <0>         0.0284
     37 H10         2.1259    2.5128   -0.7700 H         1 <0>         0.0284
     38 H11         5.7625    1.7180   -0.9381 H         1 <0>         0.0284
     39 H12         5.1842    0.3996   -1.8899 H         1 <0>         0.0284
     40 H13         5.7792    0.1541   -0.2220 H         1 <0>         0.0284
     41 H14         3.6359   -3.2613    0.3380 H         1 <0>         0.0284
     42 H15         2.4606   -2.7878    1.4025 H         1 <0>         0.0284
     43 H16         2.2549   -2.7574   -0.4255 H         1 <0>         0.0284
     44 H17         4.4266   -1.5111    2.4561 H         1 <0>         0.0284
     45 H18         3.0006   -0.5170    2.4663 H         1 <0>         0.0284
     46 H19         4.5810    0.1483    1.9819 H         1 <0>         0.0284
     47 H20         0.6080   -1.5643   -0.6631 H         1 <0>         0.0752
     48 H21         1.0317   -1.7843    1.0715 H         1 <0>         0.0752
     49 H22        -2.6208   -0.3645    1.7965 H         1 <0>         0.0514
     50 H23        -1.5000    2.0326    1.8325 H         1 <0>         0.0622
     51 H24        -2.9059   -2.8671    0.9836 H         1 <0>         0.0622
     52 H25        -5.4891    3.3261   -0.8186 H         1 <0>         0.0654
     53 H26        -6.7363   -1.0155   -1.5684 H         1 <0>         0.0654
     54 H27        -2.1298    4.4092    1.6210 H         1 <0>         0.0618
     55 H28        -4.6501   -4.3728    0.1010 H         1 <0>         0.0618
     56 H29        -4.1190    5.0596    0.2910 H         1 <0>         0.0619
     57 H30        -6.5630   -3.4512   -1.1798 H         1 <0>         0.0619
@<TRIPOS>BOND
     1    1   13 1
     2    1   15 1
     3    2   18 1
     4    2   19 1
     5    3   15 2
     6    4    5 1
     7    4    6 1
     8    4    7 1
     9    4    8 1
    10    5    9 1
    11    5   10 1
    12    5   28 1
    13    6   11 1
    14    6   12 1
    15    6   29 1
    16    7   13 1
    17    7   30 1
    18    7   31 1
    19    8   32 1
    20    8   33 1
    21    8   34 1
    22    9   35 1
    23    9   36 1
    24    9   37 1
    25   10   38 1
    26   10   39 1
    27   10   40 1
    28   11   41 1
    29   11   42 1
    30   11   43 1
    31   12   44 1
    32   12   45 1
    33   12   46 1
    34   13   47 1
    35   13   48 1
    36   14   15 1
    37   14   16 1
    38   14   17 1
    39   14   49 1
    40   16   18 ar
    41   16   20 ar
    42   17   19 ar
    43   17   21 ar
    44   18   22 ar
    45   19   23 ar
    46   20   24 ar
    47   20   50 1
    48   21   25 ar
    49   21   51 1
    50   22   26 ar
    51   22   52 1
    52   23   27 ar
    53   23   53 1
    54   24   26 ar
    55   24   54 1
    56   25   27 ar
    57   25   55 1
    58   26   56 1
    59   27   57 1
