@<TRIPOS>MOLECULE
DB00945
   21    21     0     0     0
SMALL
USER_CHARGES

@<TRIPOS>ATOM
      1 O1          1.1788    0.4626    0.6814 O.3       1 <0>        -0.4252
      2 O2         -0.8501   -2.9208   -0.4046 O.3       1 <0>        -0.4770
      3 O3          0.7303   -2.2477    1.0698 O.2       1 <0>        -0.2450
      4 O4          1.6041    0.4844   -1.6204 O.2       1 <0>        -0.2507
      5 C1         -0.1563    0.4983    0.4100 C.ar      1 <0>         0.1456
      6 C2         -0.8866   -0.6796    0.2512 C.ar      1 <0>         0.1010
      7 C3         -0.7924    1.7343    0.2929 C.ar      1 <0>        -0.0184
      8 C4         -2.2527   -0.6214   -0.0246 C.ar      1 <0>        -0.0442
      9 C5         -2.1585    1.7925    0.0172 C.ar      1 <0>        -0.0582
     10 C6         -2.8886    0.6146   -0.1416 C.ar      1 <0>        -0.0608
     11 C7         -0.2424   -1.9802    0.3707 C.2       1 <0>         0.3404
     12 C8          1.9948    0.4599   -0.4609 C.2       1 <0>         0.3092
     13 C9          3.4392    0.4196   -0.0583 C.3       1 <0>         0.0336
     14 H1         -0.2306    2.6561    0.4165 H         1 <0>         0.0654
     15 H2         -2.8523   -1.5205   -0.1403 H         1 <0>         0.0627
     16 H3         -2.6540    2.7547   -0.0729 H         1 <0>         0.0619
     17 H4         -3.9529    0.6602   -0.3532 H         1 <0>         0.0618
     18 H5          3.6804    1.3018    0.5397 H         1 <0>         0.0342
     19 H6          4.0661    0.4227   -0.9546 H         1 <0>         0.0342
     20 H7          3.6393   -0.4949    0.5054 H         1 <0>         0.0342
     21 H8         -0.4155   -3.7965   -0.3234 H         1 <0>         0.2954
@<TRIPOS>BOND
     1    1    5 1
     2    1   12 1
     3    2   11 1
     4    2   21 1
     5    3   11 2
     6    4   12 2
     7    5    6 ar
     8    5    7 ar
     9    6    8 ar
    10    6   11 1
    11    7    9 ar
    12    7   14 1
    13    8   10 ar
    14    8   15 1
    15    9   10 ar
    16    9   16 1
    17   10   17 1
    18   12   13 1
    19   13   18 1
    20   13   19 1
    21   13   20 1
