@<TRIPOS>MOLECULE
DB00432
   31    32     0     0     0
SMALL
USER_CHARGES

@<TRIPOS>ATOM
      1 F1          2.1782   -2.7392   -0.1757 F         1 <0>        -0.1656
      2 F2          3.7441   -1.8799   -1.4256 F         1 <0>        -0.1656
      3 F3          4.0439   -2.0617    0.7258 F         1 <0>        -0.1656
      4 O1         -1.2006   -0.0309    1.2634 O.3       1 <0>        -0.3483
      5 O2         -3.7161    1.3779    0.2336 O.3       1 <0>        -0.3890
      6 O3         -1.5078   -2.7959    0.9260 O.3       1 <0>        -0.3924
      7 O4          1.0358    3.3478    0.4907 O.2       1 <0>        -0.2464
      8 O5          4.6621    0.6153   -0.2384 O.2       1 <0>        -0.2671
      9 N1          0.6645    1.0472    0.3503 N.am      1 <0>        -0.2734
     10 N2          2.8356    1.9735    0.1267 N.am      1 <0>        -0.2744
     11 C1         -0.7521    1.1325    0.5537 C.3       1 <0>         0.1422
     12 C2         -2.8126    0.4746   -0.4000 C.3       1 <0>         0.0876
     13 C3         -1.5319    1.1967   -0.7494 C.3       1 <0>         0.0214
     14 C4         -2.3524   -0.5812    0.5956 C.3       1 <0>         0.1100
     15 C5         -1.9284   -1.8820   -0.0738 C.3       1 <0>         0.0729
     16 C6          1.2329   -0.2067    0.1668 C.2       1 <0>         0.0288
     17 C7          1.4713    2.2051    0.3349 C.2       1 <0>         0.3313
     18 C8          2.5386   -0.4249   -0.0323 C.2       1 <0>         0.1352
     19 C9          3.4541    0.7467   -0.0609 C.2       1 <0>         0.2657
     20 C10         3.1300   -1.7839   -0.2277 C.3       1 <0>         0.4237
     21 H1         -0.9861    2.0040    1.1765 H         1 <0>         0.0840
     22 H2         -3.3244    0.0528   -1.2701 H         1 <0>         0.0621
     23 H3         -1.0103    0.6567   -1.5488 H         1 <0>         0.0335
     24 H4         -1.6761    2.2301   -1.0804 H         1 <0>         0.0335
     25 H5         -3.1037   -0.7813    1.3675 H         1 <0>         0.0646
     26 H6         -1.1210   -1.7498   -0.7974 H         1 <0>         0.0584
     27 H7         -2.7811   -2.3260   -0.5986 H         1 <0>         0.0584
     28 H8          0.5742   -1.0585    0.1960 H         1 <0>         0.0819
     29 H9         -3.9397    2.0675   -0.4145 H         1 <0>         0.2099
     30 H10         3.4365    2.7929    0.1120 H         1 <0>         0.1734
     31 H11        -1.2575   -3.6196    0.4740 H         1 <0>         0.2095
@<TRIPOS>BOND
     1    1   20 1
     2    2   20 1
     3    3   20 1
     4    4   11 1
     5    4   14 1
     6    5   12 1
     7    5   29 1
     8    6   15 1
     9    6   31 1
    10    7   17 2
    11    8   19 2
    12    9   11 1
    13    9   16 1
    14    9   17 am
    15   10   17 am
    16   10   19 am
    17   10   30 1
    18   11   13 1
    19   11   21 1
    20   12   13 1
    21   12   14 1
    22   12   22 1
    23   13   23 1
    24   13   24 1
    25   14   15 1
    26   14   25 1
    27   15   26 1
    28   15   27 1
    29   16   18 2
    30   16   28 1
    31   18   19 1
    32   18   20 1
