@<TRIPOS>MOLECULE
DB00163
   81    82     0     0     0
SMALL
USER_CHARGES

@<TRIPOS>ATOM
      1 O1         -1.1190    1.5097   -0.2498 O.3       1 <0>        -0.4854
      2 O2         -5.6327   -1.2604   -1.8191 O.3       1 <0>        -0.5062
      3 C1         -1.2013    2.5110    0.7820 C.3       1 <0>         0.1082
      4 C2          0.2236    2.6625    1.3344 C.3       1 <0>        -0.0132
      5 C3         -2.1323    2.0761    1.9253 C.3       1 <0>        -0.0091
      6 C4          1.2657    2.6443    0.2146 C.3       1 <0>        -0.0492
      7 C5          3.7947    2.7449   -0.2920 C.3       1 <0>        -0.0439
      8 C6          2.6802    2.8294    0.7750 C.3       1 <0>        -0.0503
      9 C7         -3.5316    1.7636    1.4142 C.3       1 <0>        -0.0202
     10 C8          3.8172    1.3674   -0.9885 C.3       1 <0>        -0.0505
     11 C9         -1.6231    3.8453    0.1482 C.3       1 <0>        -0.0249
     12 C10        -3.4533    0.9199    0.1766 C.ar      1 <0>         0.0011
     13 C11         4.0238    0.1919   -0.0268 C.3       1 <0>        -0.0526
     14 C12        -2.2745    0.8499   -0.5751 C.ar      1 <0>         0.1281
     15 C13         4.0655   -1.1734   -0.7279 C.3       1 <0>        -0.0505
     16 C14         4.2044   -2.4137    0.1855 C.3       1 <0>        -0.0439
     17 C15         3.6079    3.8892   -1.2952 C.3       1 <0>        -0.0624
     18 C16         3.1102   -2.4465    1.2731 C.3       1 <0>        -0.0505
     19 C17        -4.5834    0.2130   -0.2567 C.ar      1 <0>        -0.0021
     20 C18        -2.2198    0.0552   -1.7238 C.ar      1 <0>        -0.0021
     21 C19         1.6631   -2.4926    0.7651 C.3       1 <0>        -0.0526
     22 C20        -3.3461   -0.6536   -2.1399 C.ar      1 <0>        -0.0024
     23 C21         4.1703   -3.6737   -0.6890 C.3       1 <0>        -0.0624
     24 C22        -4.5286   -0.5719   -1.4087 C.ar      1 <0>         0.1234
     25 C23         0.5794   -2.4684    1.8500 C.3       1 <0>        -0.0507
     26 C24        -0.8744   -2.4325    1.3414 C.3       1 <0>        -0.0467
     27 C25        -5.8677    0.2810    0.5107 C.3       1 <0>        -0.0359
     28 C26        -0.9480   -0.0435   -2.5076 C.3       1 <0>        -0.0359
     29 C27        -3.2902   -1.5058   -3.3678 C.3       1 <0>        -0.0359
     30 C28        -1.8898   -2.3506    2.4815 C.3       1 <0>        -0.0627
     31 C29        -1.1543   -3.6726    0.4888 C.3       1 <0>        -0.0627
     32 H1          0.3131    3.5720    1.9410 H         1 <0>         0.0304
     33 H2          0.4505    1.8180    1.9992 H         1 <0>         0.0304
     34 H3         -2.1815    2.8403    2.7100 H         1 <0>         0.0307
     35 H4         -1.7325    1.1634    2.3891 H         1 <0>         0.0307
     36 H5          1.0541    3.4347   -0.5095 H         1 <0>         0.0267
     37 H6          1.2179    1.6870   -0.3108 H         1 <0>         0.0267
     38 H7          4.7561    2.8939    0.2162 H         1 <0>         0.0298
     39 H8          2.8667    2.1032    1.5739 H         1 <0>         0.0268
     40 H9          2.7373    3.8122    1.2622 H         1 <0>         0.0268
     41 H10        -4.0714    2.6906    1.1901 H         1 <0>         0.0316
     42 H11        -4.0713    1.2442    2.2140 H         1 <0>         0.0316
     43 H12         4.6408    1.3661   -1.7147 H         1 <0>         0.0268
     44 H13         2.9058    1.2120   -1.5771 H         1 <0>         0.0268
     45 H14        -1.6138    4.6582    0.8819 H         1 <0>         0.0268
     46 H15        -0.9773    4.1241   -0.6901 H         1 <0>         0.0268
     47 H16        -2.6305    3.7893   -0.2774 H         1 <0>         0.0268
     48 H17         3.2012    0.1834    0.6918 H         1 <0>         0.0265
     49 H18         4.9510    0.3360    0.5403 H         1 <0>         0.0265
     50 H19         3.1698   -1.2736   -1.3543 H         1 <0>         0.0268
     51 H20         4.9123   -1.1681   -1.4275 H         1 <0>         0.0268
     52 H21         5.1783   -2.3691    0.6890 H         1 <0>         0.0298
     53 H22         2.7322    3.7410   -1.9345 H         1 <0>         0.0232
     54 H23         4.4800    3.9507   -1.9558 H         1 <0>         0.0232
     55 H24         3.5110    4.8540   -0.7865 H         1 <0>         0.0232
     56 H25         3.2780   -3.3327    1.8998 H         1 <0>         0.0268
     57 H26         3.2321   -1.5919    1.9485 H         1 <0>         0.0268
     58 H27         1.4801   -1.6446    0.0959 H         1 <0>         0.0265
     59 H28         1.5412   -3.4007    0.1668 H         1 <0>         0.0265
     60 H29         5.0278   -3.6876   -1.3708 H         1 <0>         0.0232
     61 H30         4.2234   -4.5760   -0.0709 H         1 <0>         0.0232
     62 H31         3.2635   -3.7287   -1.2995 H         1 <0>         0.0232
     63 H32         0.7162   -3.3389    2.5044 H         1 <0>         0.0268
     64 H33         0.7449   -1.5842    2.4793 H         1 <0>         0.0268
     65 H34        -0.9998   -1.5446    0.7121 H         1 <0>         0.0295
     66 H35        -6.1083    1.3142    0.7831 H         1 <0>         0.0279
     67 H36        -6.7276   -0.0815   -0.0610 H         1 <0>         0.0279
     68 H37        -5.7934   -0.3238    1.4206 H         1 <0>         0.0279
     69 H38        -0.6675   -1.0917   -2.6603 H         1 <0>         0.0279
     70 H39        -0.0899    0.4165   -2.0091 H         1 <0>         0.0279
     71 H40        -1.0585    0.4554   -3.4762 H         1 <0>         0.0279
     72 H41        -3.2099   -2.5616   -3.0882 H         1 <0>         0.0279
     73 H42        -4.1855   -1.3640   -3.9839 H         1 <0>         0.0279
     74 H43        -2.4584   -1.2710   -4.0364 H         1 <0>         0.0279
     75 H44        -1.8254   -3.2275    3.1344 H         1 <0>         0.0232
     76 H45        -2.9111   -2.2894    2.0912 H         1 <0>         0.0232
     77 H46        -1.7117   -1.4594    3.0923 H         1 <0>         0.0232
     78 H47        -0.9291   -4.5947    1.0350 H         1 <0>         0.0232
     79 H48        -0.5698   -3.6657   -0.4361 H         1 <0>         0.0232
     80 H49        -2.2092   -3.7063    0.1937 H         1 <0>         0.0232
     81 H50        -5.3877   -1.9782   -2.4239 H         1 <0>         0.2922
@<TRIPOS>BOND
     1    1    3 1
     2    1   14 1
     3    2   24 1
     4    2   81 1
     5    3    4 1
     6    3    5 1
     7    3   11 1
     8    4    6 1
     9    4   32 1
    10    4   33 1
    11    5    9 1
    12    5   34 1
    13    5   35 1
    14    6    8 1
    15    6   36 1
    16    6   37 1
    17    7    8 1
    18    7   10 1
    19    7   17 1
    20    7   38 1
    21    8   39 1
    22    8   40 1
    23    9   12 1
    24    9   41 1
    25    9   42 1
    26   10   13 1
    27   10   43 1
    28   10   44 1
    29   11   45 1
    30   11   46 1
    31   11   47 1
    32   12   14 ar
    33   12   19 ar
    34   13   15 1
    35   13   48 1
    36   13   49 1
    37   14   20 ar
    38   15   16 1
    39   15   50 1
    40   15   51 1
    41   16   18 1
    42   16   23 1
    43   16   52 1
    44   17   53 1
    45   17   54 1
    46   17   55 1
    47   18   21 1
    48   18   56 1
    49   18   57 1
    50   19   24 ar
    51   19   27 1
    52   20   22 ar
    53   20   28 1
    54   21   25 1
    55   21   58 1
    56   21   59 1
    57   22   24 ar
    58   22   29 1
    59   23   60 1
    60   23   61 1
    61   23   62 1
    62   25   26 1
    63   25   63 1
    64   25   64 1
    65   26   30 1
    66   26   31 1
    67   26   65 1
    68   27   66 1
    69   27   67 1
    70   27   68 1
    71   28   69 1
    72   28   70 1
    73   28   71 1
    74   29   72 1
    75   29   73 1
    76   29   74 1
    77   30   75 1
    78   30   76 1
    79   30   77 1
    80   31   78 1
    81   31   79 1
    82   31   80 1
