@<TRIPOS>MOLECULE
DB00428
   33    33     0     0     0
SMALL
USER_CHARGES

@<TRIPOS>ATOM
      1 O1          1.8376    1.3969   -0.1819 O.3       1 <0>        -0.3414
      2 O2          0.2703   -2.4046   -0.5470 O.3       1 <0>        -0.3871
      3 O3          2.9996   -2.0643    0.3084 O.3       1 <0>        -0.3865
      4 O4          0.4322    1.2847    1.7198 O.3       1 <0>        -0.3654
      5 O5          4.4831    1.9491    0.2058 O.3       1 <0>        -0.3924
      6 O6         -2.4014    0.9356   -1.5487 O.2       1 <0>        -0.2508
      7 O7         -5.0992   -0.8478    1.7247 O.2       1 <0>        -0.1256
      8 N1         -1.4721   -0.2130    0.2128 N.am      1 <0>        -0.2876
      9 N2         -3.8161    0.0645    0.0669 N.am      1 <0>        -0.1443
     10 N3         -3.9340   -0.7057    1.3384 N.2       1 <0>         0.0524
     11 C1          0.7536   -1.2531    0.1476 C.3       1 <0>         0.1065
     12 C2         -0.1093   -0.0490   -0.2388 C.3       1 <0>         0.1036
     13 C3          2.2135   -1.0151   -0.2510 C.3       1 <0>         0.1112
     14 C4          2.7116    0.3469    0.2464 C.3       1 <0>         0.1129
     15 C5          0.4977    1.2521    0.2953 C.3       1 <0>         0.1777
     16 C6          4.1023    0.6782   -0.2880 C.3       1 <0>         0.0730
     17 C7         -2.5534    0.3070   -0.4963 C.2       1 <0>         0.3243
     18 C8         -5.0358    0.5479   -0.5679 C.3       1 <0>         0.0309
     19 H1          0.6786   -1.4907    1.2145 H         1 <0>         0.0640
     20 H2         -0.1254    0.0096   -1.3359 H         1 <0>         0.0575
     21 H3          2.3129   -1.0744   -1.3423 H         1 <0>         0.0646
     22 H4          2.7677    0.3607    1.3429 H         1 <0>         0.0647
     23 H5         -0.0699    2.1143   -0.0693 H         1 <0>         0.0928
     24 H6          4.1097    0.7284   -1.3819 H         1 <0>         0.0584
     25 H7          4.8443   -0.0574    0.0361 H         1 <0>         0.0584
     26 H8         -1.6129   -0.6467    1.1180 H         1 <0>         0.1509
     27 H9          0.3306   -2.2300   -1.5017 H         1 <0>         0.2100
     28 H10         2.6460   -2.9053   -0.0285 H         1 <0>         0.2100
     29 H11         0.4674    0.3816    2.0706 H         1 <0>         0.2125
     30 H12         3.8156    2.5918   -0.0894 H         1 <0>         0.2095
     31 H13        -4.8138    1.0951   -1.4878 H         1 <0>         0.0450
     32 H14        -5.5568    1.2189    0.1217 H         1 <0>         0.0450
     33 H15        -5.6741   -0.3060   -0.8137 H         1 <0>         0.0450
@<TRIPOS>BOND
     1    1   14 1
     2    1   15 1
     3    2   11 1
     4    2   27 1
     5    3   13 1
     6    3   28 1
     7    4   15 1
     8    4   29 1
     9    5   16 1
    10    5   30 1
    11    6   17 2
    12    7   10 2
    13    8   12 1
    14    8   17 am
    15    8   26 1
    16    9   10 1
    17    9   17 am
    18    9   18 1
    19   11   12 1
    20   11   13 1
    21   11   19 1
    22   12   15 1
    23   12   20 1
    24   13   14 1
    25   13   21 1
    26   14   16 1
    27   14   22 1
    28   15   23 1
    29   16   24 1
    30   16   25 1
    31   18   31 1
    32   18   32 1
    33   18   33 1
