@<TRIPOS>MOLECULE
DB00355
   45    46     0     0     0
SMALL
USER_CHARGES

@<TRIPOS>ATOM
      1 S1          5.0469    0.3503   -1.5118 S.o2      1 <0>         0.0025
      2 S2         -4.0101    3.6361    0.2517 S.3       1 <0>        -0.0110
      3 O1          3.0395    2.8193   -2.1248 O.2       1 <0>        -0.2719
      4 O2          6.0264    1.4063   -1.1939 O.3       1 <0>        -0.7075
      5 O3          4.8087    0.1987   -2.9596 O.2       1 <0>        -0.1657
      6 O4          5.3379   -0.9285   -0.8367 O.2       1 <0>        -0.1657
      7 O5          0.0920    1.1107    2.1497 O.2       1 <0>        -0.2683
      8 O6         -0.5269   -1.3927    0.4170 O.3       1 <0>        -0.3756
      9 O7          0.3693   -4.8325    0.0199 O.3       1 <0>        -0.4778
     10 O8          1.4958   -3.0223    0.7765 O.2       1 <0>        -0.2464
     11 N1          3.5846    0.8803   -0.8647 N.am      1 <0>        -0.1786
     12 N2          0.6877    1.4620   -0.0919 N.am      1 <0>        -0.2969
     13 N3         -1.6856   -0.6302    0.2144 N.2       1 <0>        -0.0766
     14 N4         -3.8147    1.0840   -0.1107 N.2       1 <0>        -0.1829
     15 N5         -6.0283    1.9354   -0.6084 N.4       1 <0>        -0.3895
     16 C1          3.1005    0.8932    0.5325 C.3       1 <0>         0.0718
     17 C2          2.0534    1.9508    0.1222 C.3       1 <0>         0.1214
     18 C3          2.8883    2.0644   -1.1928 C.2       1 <0>         0.2561
     19 C4          4.2148    1.2917    1.4852 C.3       1 <0>        -0.0425
     20 C5         -0.1372    1.0974    0.9510 C.2       1 <0>         0.2684
     21 C6         -1.4899    0.6253    0.4838 C.2       1 <0>         0.1899
     22 C7         -0.8274   -2.7433    0.1016 C.3       1 <0>         0.2281
     23 C8         -2.6071    1.5601    0.3151 C.2       1 <0>         0.1110
     24 C9         -1.2450   -2.8044   -1.3647 C.3       1 <0>        -0.0119
     25 C10        -1.9349   -3.2130    1.0403 C.3       1 <0>        -0.0119
     26 C11        -2.4960    2.8946    0.5660 C.2       1 <0>         0.0111
     27 C12         0.4630   -3.5165    0.3401 C.2       1 <0>         0.3512
     28 C13        -4.6439    2.1017   -0.1825 C.2       1 <0>         0.2791
     29 H1          2.6736   -0.0776    0.8131 H         1 <0>         0.0539
     30 H2          2.0682    2.8693    0.7187 H         1 <0>         0.0614
     31 H3          3.8077    1.4448    2.4904 H         1 <0>         0.0249
     32 H4          4.7026    2.2251    1.1844 H         1 <0>         0.0249
     33 H5          4.9761    0.5090    1.5598 H         1 <0>         0.0249
     34 H6          0.3213    1.3846   -1.0381 H         1 <0>         0.1499
     35 H7         -0.4817   -2.3467   -2.0054 H         1 <0>         0.0274
     36 H8         -2.1842   -2.2756   -1.5602 H         1 <0>         0.0274
     37 H9         -1.3816   -3.8392   -1.6976 H         1 <0>         0.0274
     38 H10        -2.8858   -2.6985    0.8641 H         1 <0>         0.0274
     39 H11        -2.1206   -4.2868    0.9281 H         1 <0>         0.0274
     40 H12        -1.6613   -3.0304    2.0865 H         1 <0>         0.0274
     41 H13        -1.6495    3.4748    0.9052 H         1 <0>         0.0718
     42 H14        -6.6838    2.3285    0.0795 H         1 <0>         0.3728
     43 H15        -6.2055    2.4059   -1.5053 H         1 <0>         0.3728
     44 H16        -6.2686    0.9429   -0.7292 H         1 <0>         0.3728
     45 H17         1.2113   -5.3092    0.1816 H         1 <0>         0.2952
@<TRIPOS>BOND
     1    1    4 1
     2    1    5 2
     3    1    6 2
     4    1   11 1
     5    2   26 1
     6    2   28 1
     7    3   18 2
     8    7   20 2
     9    8   13 1
    10    8   22 1
    11    9   27 1
    12    9   45 1
    13   10   27 2
    14   11   16 1
    15   11   18 am
    16   12   17 1
    17   12   20 am
    18   12   34 1
    19   13   21 2
    20   14   23 1
    21   14   28 2
    22   15   28 1
    23   15   42 1
    24   15   43 1
    25   15   44 1
    26   16   17 1
    27   16   19 1
    28   16   29 1
    29   17   18 1
    30   17   30 1
    31   19   31 1
    32   19   32 1
    33   19   33 1
    34   20   21 1
    35   21   23 1
    36   22   24 1
    37   22   25 1
    38   22   27 1
    39   23   26 2
    40   24   35 1
    41   24   36 1
    42   24   37 1
    43   25   38 1
    44   25   39 1
    45   25   40 1
    46   26   41 1
