@<TRIPOS>MOLECULE
DB00229
   57    60     0     0     0
SMALL
USER_CHARGES

@<TRIPOS>ATOM
      1 S1          2.6454   -0.8982    1.3052 S.3       1 <0>        -0.1311
      2 S2         -2.1481   -0.9254    0.9848 S.3       1 <0>        -0.0801
      3 S3          5.6817    3.5974    1.9970 S.3       1 <0>        -0.0608
      4 O1          2.5003   -2.5857   -3.0243 O.2       1 <0>        -0.2731
      5 O2         -0.4354   -4.3156   -1.4204 O.3       1 <0>        -0.4763
      6 O3         -0.8312   -2.2114   -2.2238 O.2       1 <0>        -0.2437
      7 O4          6.5449   -0.8824   -0.4312 O.2       1 <0>        -0.2754
      8 N1          1.9531   -2.4504   -0.7345 N.am      1 <0>        -0.2490
      9 N2          4.3756   -0.6278   -1.2139 N.am      1 <0>        -0.3014
     10 N3         -4.7767   -0.5601    1.5885 N.pl3     1 <0>        -0.2190
     11 N4         -5.4968    2.1660   -0.8514 N.3       1 <0>        -0.3066
     12 N5          4.2579    2.6275    0.0696 N.2       1 <0>        -0.2296
     13 N6         -4.0244   -2.5086    2.1716 N.2       1 <0>        -0.1015
     14 N7         -5.8213   -1.1893    2.1447 N.2       1 <0>        -0.0432
     15 N8         -5.3554   -2.3807    2.4990 N.2       1 <0>        -0.0222
     16 N9          3.0836    4.0003    1.5949 N.pl3     1 <0>        -0.3375
     17 C1          3.0281   -2.2987    0.2289 C.3       1 <0>         0.1042
     18 C2          3.9418   -2.0050   -0.9811 C.3       1 <0>         0.1283
     19 C3          2.7199   -2.4265   -1.8463 C.2       1 <0>         0.2440
     20 C4          0.6436   -2.5626   -0.3930 C.2       1 <0>         0.1228
     21 C5          0.2078   -2.2497    0.8505 C.2       1 <0>        -0.0211
     22 C6          1.1084   -1.6566    1.9319 C.3       1 <0>         0.0196
     23 C7         -1.2132   -2.4247    1.3301 C.3       1 <0>         0.0253
     24 C8         -0.2889   -2.9764   -1.4520 C.2       1 <0>         0.3514
     25 C9          5.6622   -0.1772   -0.9137 C.2       1 <0>         0.2195
     26 C10         5.8431    1.2931   -1.2460 C.3       1 <0>         0.0668
     27 C11         5.5474    2.1836   -0.0806 C.2       1 <0>         0.0592
     28 C12        -3.7314   -1.3838    1.6271 C.2       1 <0>         0.2097
     29 C13        -4.9202    0.7811    1.0813 C.3       1 <0>         0.0586
     30 C14        -5.3382    0.7939   -0.3862 C.3       1 <0>         0.0180
     31 C15         6.4638    2.5912    0.8493 C.2       1 <0>         0.0007
     32 C16         4.2093    3.3876    1.1410 C.2       1 <0>         0.1557
     33 C17        -5.9364    2.1899   -2.2478 C.3       1 <0>        -0.0130
     34 C18        -4.2446    2.9098   -0.7015 C.3       1 <0>        -0.0130
     35 H1          3.2692   -3.2324    0.7507 H         1 <0>         0.0644
     36 H2          4.7698   -2.7179   -1.0810 H         1 <0>         0.0622
     37 H3          0.5813   -0.8655    2.4749 H         1 <0>         0.0423
     38 H4          1.3689   -2.4381    2.6544 H         1 <0>         0.0423
     39 H5          3.7140    0.0451   -1.5945 H         1 <0>         0.1495
     40 H6         -1.6891   -3.2747    0.8295 H         1 <0>         0.0427
     41 H7         -1.2275   -2.6478    2.4032 H         1 <0>         0.0427
     42 H8          6.8783    1.4343   -1.5801 H         1 <0>         0.0422
     43 H9          5.2079    1.5678   -2.0966 H         1 <0>         0.0422
     44 H10        -1.0526   -4.6359   -2.1123 H         1 <0>         0.2954
     45 H11        -5.6706    1.2868    1.7026 H         1 <0>         0.0523
     46 H12        -3.9663    1.2821    1.2661 H         1 <0>         0.0523
     47 H13        -4.6052    0.2480   -0.9951 H         1 <0>         0.0444
     48 H14        -6.2912    0.2578   -0.4864 H         1 <0>         0.0444
     49 H15         7.5177    2.3620    0.9194 H         1 <0>         0.0712
     50 H16        -6.1136    3.2192   -2.5790 H         1 <0>         0.0391
     51 H17        -5.2021    1.7315   -2.9203 H         1 <0>         0.0391
     52 H18        -6.8877    1.6579   -2.3609 H         1 <0>         0.0391
     53 H19        -4.0339    3.1503    0.3450 H         1 <0>         0.0391
     54 H20        -4.3177    3.8835   -1.2018 H         1 <0>         0.0391
     55 H21        -3.3873    2.3804   -1.1332 H         1 <0>         0.0391
     56 H22         3.0892    4.5794    2.4282 H         1 <0>         0.1442
     57 H23         2.1928    3.9018    1.1193 H         1 <0>         0.1442
@<TRIPOS>BOND
     1    1   17 1
     2    1   22 1
     3    2   23 1
     4    2   28 1
     5    3   31 1
     6    3   32 1
     7    4   19 2
     8    5   24 1
     9    5   44 1
    10    6   24 2
    11    7   25 2
    12    8   17 1
    13    8   19 am
    14    8   20 1
    15    9   18 1
    16    9   25 am
    17    9   39 1
    18   10   14 1
    19   10   28 1
    20   10   29 1
    21   11   30 1
    22   11   33 1
    23   11   34 1
    24   12   27 1
    25   12   32 2
    26   13   15 1
    27   13   28 2
    28   14   15 2
    29   16   32 1
    30   16   56 1
    31   16   57 1
    32   17   18 1
    33   17   35 1
    34   18   19 1
    35   18   36 1
    36   20   21 2
    37   20   24 1
    38   21   22 1
    39   21   23 1
    40   22   37 1
    41   22   38 1
    42   23   40 1
    43   23   41 1
    44   25   26 1
    45   26   27 1
    46   26   42 1
    47   26   43 1
    48   27   31 2
    49   29   30 1
    50   29   45 1
    51   29   46 1
    52   30   47 1
    53   30   48 1
    54   31   49 1
    55   33   50 1
    56   33   51 1
    57   33   52 1
    58   34   53 1
    59   34   54 1
    60   34   55 1
