@<TRIPOS>MOLECULE
DB00220
   85    88     0     0     0
SMALL
USER_CHARGES

@<TRIPOS>ATOM
      1 S1         -2.6985   -2.3779    0.1656 S.3       1 <0>        -0.1233
      2 O1          1.9813    0.0184    1.5278 O.2       1 <0>        -0.2741
      3 O2         -1.9090    0.8572   -3.0350 O.3       1 <0>        -0.3887
      4 O3         -2.7320    2.1974    1.1065 O.2       1 <0>        -0.2702
      5 O4         -7.6807    2.0305    3.0330 O.3       1 <0>        -0.5065
      6 N1          1.0810    0.7284   -0.8322 N.3       1 <0>        -0.2887
      7 N2          3.5247   -1.5094    0.6896 N.am      1 <0>        -0.3093
      8 N3         -3.2526    0.6075   -0.4987 N.am      1 <0>        -0.3052
      9 C1          3.8633    1.6416   -1.4515 C.3       1 <0>        -0.0352
     10 C2          2.6503    2.5879   -1.5107 C.3       1 <0>        -0.0253
     11 C3          3.4167    0.1831   -1.6551 C.3       1 <0>        -0.0257
     12 C4          1.5257    2.1066   -0.5747 C.3       1 <0>         0.0028
     13 C5          4.6932    1.8293   -0.1699 C.3       1 <0>        -0.0499
     14 C6          3.0541    4.0435   -1.2233 C.3       1 <0>        -0.0488
     15 C7          2.1856   -0.2385   -0.8388 C.3       1 <0>         0.0876
     16 C8          5.1049    3.2853    0.0273 C.3       1 <0>        -0.0528
     17 C9          3.8912    4.2067    0.0416 C.3       1 <0>        -0.0527
     18 C10         0.2761    0.6331   -2.0503 C.3       1 <0>         0.0274
     19 C11         2.5308   -0.5512    0.5886 C.2       1 <0>         0.2307
     20 C12        -1.1954    0.9950   -1.8041 C.3       1 <0>         0.0869
     21 C13        -1.8985    0.1455   -0.7204 C.3       1 <0>         0.0598
     22 C14         4.0531   -1.9702    1.9532 C.3       1 <0>         0.0262
     23 C15        -1.8927   -1.3439   -1.0994 C.3       1 <0>         0.0192
     24 C16         5.1336   -3.0266    1.6957 C.3       1 <0>        -0.0442
     25 C17         4.6591   -0.7811    2.7061 C.3       1 <0>        -0.0442
     26 C18         2.9199   -2.5861    2.7820 C.3       1 <0>        -0.0442
     27 C19        -3.5539    1.6082    0.4094 C.2       1 <0>         0.2448
     28 C20        -4.9938    1.9496    0.5395 C.ar      1 <0>         0.0431
     29 C21        -2.5297   -4.0056   -0.5553 C.ar      1 <0>         0.0079
     30 C22        -5.6602    1.8213    1.7581 C.ar      1 <0>         0.0030
     31 C23        -5.6799    2.4061   -0.5859 C.ar      1 <0>        -0.0492
     32 C24        -1.8965   -4.1598   -1.7886 C.ar      1 <0>        -0.0483
     33 C25        -3.0316   -5.1209    0.1153 C.ar      1 <0>        -0.0483
     34 C26        -7.0126    2.1496    1.8514 C.ar      1 <0>         0.1205
     35 C27        -4.9322    1.3327    2.9701 C.3       1 <0>        -0.0355
     36 C28        -7.0324    2.7344   -0.4926 C.ar      1 <0>        -0.0576
     37 C29        -1.7651   -5.4294   -2.3512 C.ar      1 <0>        -0.0607
     38 C30        -2.9001   -6.3905   -0.4475 C.ar      1 <0>        -0.0607
     39 C31        -7.6988    2.6060    0.7259 C.ar      1 <0>        -0.0199
     40 C32        -2.2670   -6.5447   -1.6806 C.ar      1 <0>        -0.0617
     41 H1          4.5254    1.8963   -2.2917 H         1 <0>         0.0304
     42 H2          2.2696    2.5810   -2.5399 H         1 <0>         0.0316
     43 H3          4.2747   -0.4810   -1.5075 H         1 <0>         0.0288
     44 H4          3.1507    0.0759   -2.7167 H         1 <0>         0.0288
     45 H5          1.8453    2.1965    0.4686 H         1 <0>         0.0430
     46 H6          0.6733    2.7926   -0.6503 H         1 <0>         0.0430
     47 H7          4.1328    1.5134    0.7135 H         1 <0>         0.0268
     48 H8          5.5919    1.2029   -0.2159 H         1 <0>         0.0268
     49 H9          3.6385    4.4164   -2.0749 H         1 <0>         0.0268
     50 H10         2.1628    4.6789   -1.1597 H         1 <0>         0.0268
     51 H11         1.8284   -1.1993   -1.2378 H         1 <0>         0.0559
     52 H12         5.7874    3.5865   -0.7769 H         1 <0>         0.0265
     53 H13         5.6561    3.3877    0.9689 H         1 <0>         0.0265
     54 H14         4.2234    5.2477    0.1278 H         1 <0>         0.0265
     55 H15         3.2789    3.9982    0.9266 H         1 <0>         0.0265
     56 H16         0.3012   -0.3802   -2.4716 H         1 <0>         0.0453
     57 H17         0.6682    1.2478   -2.8688 H         1 <0>         0.0453
     58 H18        -1.2648    2.0548   -1.5317 H         1 <0>         0.0625
     59 H19         3.8434   -1.9804   -0.1517 H         1 <0>         0.1492
     60 H20        -1.3528    0.2703    0.2239 H         1 <0>         0.0532
     61 H21        -2.8310    1.1171   -2.8677 H         1 <0>         0.2099
     62 H22        -2.4259   -1.4723   -2.0475 H         1 <0>         0.0399
     63 H23        -0.8589   -1.6844   -1.1954 H         1 <0>         0.0399
     64 H24        -3.9986    0.1941   -1.0515 H         1 <0>         0.1494
     65 H25         5.5625   -3.3972    2.6333 H         1 <0>         0.0250
     66 H26         5.9509   -2.6162    1.0911 H         1 <0>         0.0250
     67 H27         4.7255   -3.8853    1.1500 H         1 <0>         0.0250
     68 H28         5.1428   -1.1151    3.6318 H         1 <0>         0.0250
     69 H29         5.4221   -0.2782    2.1007 H         1 <0>         0.0250
     70 H30         3.9183   -0.0286    2.9925 H         1 <0>         0.0250
     71 H31         3.3110   -3.0340    3.7030 H         1 <0>         0.0250
     72 H32         2.4061   -3.3763    2.2217 H         1 <0>         0.0250
     73 H33         2.1638   -1.8550    3.0835 H         1 <0>         0.0250
     74 H34        -5.1735    2.5163   -1.5416 H         1 <0>         0.0625
     75 H35        -1.4790   -3.3515   -2.3741 H         1 <0>         0.0629
     76 H36        -3.5281   -5.0203    1.0771 H         1 <0>         0.0629
     77 H37        -4.3204    2.1363    3.3926 H         1 <0>         0.0279
     78 H38        -5.6115    0.9811    3.7533 H         1 <0>         0.0279
     79 H39        -4.2898    0.4789    2.7284 H         1 <0>         0.0279
     80 H40        -7.5662    3.0910   -1.3686 H         1 <0>         0.0619
     81 H41        -1.2720   -5.5510   -3.3114 H         1 <0>         0.0618
     82 H42        -3.2909   -7.2592    0.0746 H         1 <0>         0.0618
     83 H43        -8.7525    2.8657    0.7839 H         1 <0>         0.0654
     84 H44        -2.1646   -7.5333   -2.1187 H         1 <0>         0.0618
     85 H45        -8.6056    2.3024    2.9039 H         1 <0>         0.2921
@<TRIPOS>BOND
     1    1   23 1
     2    1   29 1
     3    2   19 2
     4    3   20 1
     5    3   61 1
     6    4   27 2
     7    5   34 1
     8    5   85 1
     9    6   12 1
    10    6   15 1
    11    6   18 1
    12    7   19 am
    13    7   22 1
    14    7   59 1
    15    8   21 1
    16    8   27 am
    17    8   64 1
    18    9   10 1
    19    9   11 1
    20    9   13 1
    21    9   41 1
    22   10   12 1
    23   10   14 1
    24   10   42 1
    25   11   15 1
    26   11   43 1
    27   11   44 1
    28   12   45 1
    29   12   46 1
    30   13   16 1
    31   13   47 1
    32   13   48 1
    33   14   17 1
    34   14   49 1
    35   14   50 1
    36   15   19 1
    37   15   51 1
    38   16   17 1
    39   16   52 1
    40   16   53 1
    41   17   54 1
    42   17   55 1
    43   18   20 1
    44   18   56 1
    45   18   57 1
    46   20   21 1
    47   20   58 1
    48   21   23 1
    49   21   60 1
    50   22   24 1
    51   22   25 1
    52   22   26 1
    53   23   62 1
    54   23   63 1
    55   24   65 1
    56   24   66 1
    57   24   67 1
    58   25   68 1
    59   25   69 1
    60   25   70 1
    61   26   71 1
    62   26   72 1
    63   26   73 1
    64   27   28 1
    65   28   30 ar
    66   28   31 ar
    67   29   32 ar
    68   29   33 ar
    69   30   34 ar
    70   30   35 1
    71   31   36 ar
    72   31   74 1
    73   32   37 ar
    74   32   75 1
    75   33   38 ar
    76   33   76 1
    77   34   39 ar
    78   35   77 1
    79   35   78 1
    80   35   79 1
    81   36   39 ar
    82   36   80 1
    83   37   40 ar
    84   37   81 1
    85   38   40 ar
    86   38   82 1
    87   39   83 1
    88   40   84 1
