@<TRIPOS>MOLECULE
DB00451
   35    36     0     0     0
SMALL
USER_CHARGES

@<TRIPOS>ATOM
      1 I1          0.9129   -0.4046   -3.3562 I         1 <0>        -0.0400
      2 I2          1.1164   -2.7838    2.2602 I         1 <0>        -0.0400
      3 I3          7.2438   -0.3550   -0.2472 I         1 <0>        -0.0399
      4 I4          2.5411    3.1623    1.4152 I         1 <0>        -0.0399
      5 O1          2.0648   -1.7860   -0.6672 O.3       1 <0>        -0.4539
      6 O2         -2.4839    2.2895   -0.5855 O.3       1 <0>        -0.4795
      7 O3         -4.6627    2.0580   -1.1725 O.2       1 <0>        -0.2492
      8 O4          5.5763    2.1759    0.8851 O.3       1 <0>        -0.5047
      9 N1         -5.0899    0.6288    1.1309 N.3       1 <0>        -0.3181
     10 C1         -3.4559   -0.7764   -0.0397 C.3       1 <0>        -0.0020
     11 C2         -3.7460    0.6092    0.5576 C.3       1 <0>         0.1072
     12 C3         -1.9782   -1.0462   -0.2074 C.ar      1 <0>        -0.0432
     13 C4         -1.2757   -1.6382    0.8291 C.ar      1 <0>        -0.0418
     14 C5         -1.3561   -0.6961   -1.3942 C.ar      1 <0>        -0.0418
     15 C6          0.7296   -1.5409   -0.5151 C.ar      1 <0>         0.1545
     16 C7          0.0074   -0.9455   -1.5493 C.ar      1 <0>         0.0569
     17 C8          0.0880   -1.8874    0.6739 C.ar      1 <0>         0.0569
     18 C9         -3.7065    1.7045   -0.4943 C.2       1 <0>         0.3220
     19 C10         2.9447   -0.7932   -0.2780 C.ar      1 <0>         0.1307
     20 C11         2.4442    0.3884    0.2414 C.ar      1 <0>        -0.0026
     21 C12         4.3059   -1.0038   -0.4167 C.ar      1 <0>        -0.0026
     22 C13         5.1938   -0.0022   -0.0242 C.ar      1 <0>         0.0592
     23 C14         3.3322    1.3900    0.6337 C.ar      1 <0>         0.0592
     24 C15         4.7068    1.1948    0.5009 C.ar      1 <0>         0.1432
     25 H1         -3.9618   -0.8971   -1.0075 H         1 <0>         0.0334
     26 H2         -3.8701   -1.5648    0.6045 H         1 <0>         0.0334
     27 H3         -3.0420    0.8639    1.3583 H         1 <0>         0.0577
     28 H4         -1.7880   -1.9002    1.7515 H         1 <0>         0.0632
     29 H5         -1.9311   -0.2352   -2.1934 H         1 <0>         0.0632
     30 H6         -5.1520   -0.0620    1.8782 H         1 <0>         0.1190
     31 H7         -5.7703    0.3392    0.4285 H         1 <0>         0.1190
     32 H8          1.3856    0.5883    0.3645 H         1 <0>         0.0666
     33 H9          4.6629   -1.9442   -0.8284 H         1 <0>         0.0666
     34 H10        -2.4697    3.0039   -1.2576 H         1 <0>         0.2951
     35 H11         6.4834    1.8660    0.7206 H         1 <0>         0.2922
@<TRIPOS>BOND
     1    1   16 1
     2    2   17 1
     3    3   22 1
     4    4   23 1
     5    5   15 1
     6    5   19 1
     7    6   18 1
     8    6   34 1
     9    7   18 2
    10    8   24 1
    11    8   35 1
    12    9   11 1
    13    9   30 1
    14    9   31 1
    15   10   11 1
    16   10   12 1
    17   10   25 1
    18   10   26 1
    19   11   18 1
    20   11   27 1
    21   12   13 ar
    22   12   14 ar
    23   13   17 ar
    24   13   28 1
    25   14   16 ar
    26   14   29 1
    27   15   16 ar
    28   15   17 ar
    29   19   20 ar
    30   19   21 ar
    31   20   23 ar
    32   20   32 1
    33   21   22 ar
    34   21   33 1
    35   22   24 ar
    36   23   24 ar
