@<TRIPOS>MOLECULE
DB00490
   59    62     0     0     0
SMALL
USER_CHARGES

@<TRIPOS>ATOM
      1 O1         -2.9832   -1.3450    1.5797 O.2       1 <0>        -0.2752
      2 O2         -3.2735    1.5844   -2.0427 O.2       1 <0>        -0.2752
      3 N1         -3.1231    0.0352   -0.2995 N.am      1 <0>        -0.2421
      4 N2          3.0869    0.7921   -0.2746 N.3       1 <0>        -0.2994
      5 N3          5.8100    0.0036    0.0751 N.pl3     1 <0>        -0.2972
      6 N4          7.4876   -1.6298   -0.2304 N.ar      1 <0>        -0.2228
      7 N5          8.0539    0.5894    0.5191 N.ar      1 <0>        -0.2228
      8 C1         -5.9005    0.2265    0.0610 C.3       1 <0>        -0.0127
      9 C2         -6.2415   -0.9409   -0.8815 C.3       1 <0>        -0.0465
     10 C3         -7.3039    0.6559    0.5202 C.3       1 <0>        -0.0465
     11 C4         -7.4028   -1.6700   -0.2092 C.3       1 <0>        -0.0525
     12 C5         -8.0789   -0.6464    0.7011 C.3       1 <0>        -0.0525
     13 C6         -5.0405   -0.2016    1.2522 C.3       1 <0>         0.0306
     14 C7         -5.1782    1.3697   -0.6399 C.3       1 <0>         0.0306
     15 C8         -3.6297   -0.5802    0.8597 C.2       1 <0>         0.2223
     16 C9         -3.7815    1.0002   -1.0827 C.2       1 <0>         0.2223
     17 C10        -1.7662   -0.3276   -0.6947 C.3       1 <0>         0.0224
     18 C11        -0.7136    0.5704   -0.0530 C.3       1 <0>        -0.0355
     19 C12         0.7117    0.2079   -0.4829 C.3       1 <0>        -0.0388
     20 C13         1.7347    1.1481    0.1538 C.3       1 <0>        -0.0010
     21 C14         3.4167   -0.5755    0.1447 C.3       1 <0>         0.0148
     22 C15         4.0672    1.7344    0.2794 C.3       1 <0>         0.0148
     23 C16         4.8088   -0.9810   -0.3462 C.3       1 <0>         0.0277
     24 C17         5.4803    1.4061   -0.2080 C.3       1 <0>         0.0277
     25 C18         7.1610   -0.3575    0.1232 C.ar      1 <0>         0.2178
     26 C19         8.7986   -1.9436   -0.1732 C.ar      1 <0>         0.0326
     27 C20         9.3475    0.2075    0.5532 C.ar      1 <0>         0.0326
     28 C21         9.7826   -1.0576    0.2150 C.ar      1 <0>        -0.0253
     29 H1         -5.4019   -1.6173   -1.0695 H         1 <0>         0.0271
     30 H2         -6.5765   -0.5601   -1.8550 H         1 <0>         0.0271
     31 H3         -7.7944    1.2582   -0.2554 H         1 <0>         0.0271
     32 H4         -7.2927    1.2523    1.4386 H         1 <0>         0.0271
     33 H5         -7.0348   -2.5138    0.3858 H         1 <0>         0.0265
     34 H6         -8.0986   -2.0743   -0.9516 H         1 <0>         0.0265
     35 H7         -9.1370   -0.5169    0.4519 H         1 <0>         0.0265
     36 H8         -8.0282   -0.9820    1.7433 H         1 <0>         0.0265
     37 H9         -5.4814   -1.0593    1.7731 H         1 <0>         0.0364
     38 H10        -4.9613    0.6141    1.9822 H         1 <0>         0.0364
     39 H11        -5.0915    2.2392    0.0237 H         1 <0>         0.0364
     40 H12        -5.7386    1.6912   -1.5265 H         1 <0>         0.0364
     41 H13        -1.6835   -0.2680   -1.7867 H         1 <0>         0.0469
     42 H14        -1.5769   -1.3724   -0.4206 H         1 <0>         0.0469
     43 H15        -0.7930    0.5073    1.0395 H         1 <0>         0.0281
     44 H16        -0.9170    1.6160   -0.3165 H         1 <0>         0.0281
     45 H17         0.8570   -0.8323   -0.1796 H         1 <0>         0.0278
     46 H18         0.7897    0.2506   -1.5763 H         1 <0>         0.0278
     47 H19         1.6433    1.1175    1.2475 H         1 <0>         0.0427
     48 H20         1.5086    2.1741   -0.1629 H         1 <0>         0.0427
     49 H21         2.7435   -1.3199   -0.2868 H         1 <0>         0.0442
     50 H22         3.3667   -0.6724    1.2375 H         1 <0>         0.0442
     51 H23         4.0443    1.7170    1.3776 H         1 <0>         0.0442
     52 H24         3.8255    2.7567   -0.0362 H         1 <0>         0.0442
     53 H25         5.0301   -1.9710    0.0712 H         1 <0>         0.0477
     54 H26         4.8184   -1.0691   -1.4402 H         1 <0>         0.0477
     55 H27         5.5629    1.5879   -1.2873 H         1 <0>         0.0477
     56 H28         6.1670    2.0967    0.2953 H         1 <0>         0.0477
     57 H29         9.0443   -2.9610   -0.4576 H         1 <0>         0.0831
     58 H30        10.0482    0.9723    0.8706 H         1 <0>         0.0831
     59 H31        10.8271   -1.3365    0.2517 H         1 <0>         0.0648
@<TRIPOS>BOND
     1    1   15 2
     2    2   16 2
     3    3   15 am
     4    3   16 am
     5    3   17 1
     6    4   20 1
     7    4   21 1
     8    4   22 1
     9    5   23 1
    10    5   24 1
    11    5   25 1
    12    6   25 ar
    13    6   26 ar
    14    7   25 ar
    15    7   27 ar
    16    8    9 1
    17    8   10 1
    18    8   13 1
    19    8   14 1
    20    9   11 1
    21    9   29 1
    22    9   30 1
    23   10   12 1
    24   10   31 1
    25   10   32 1
    26   11   12 1
    27   11   33 1
    28   11   34 1
    29   12   35 1
    30   12   36 1
    31   13   15 1
    32   13   37 1
    33   13   38 1
    34   14   16 1
    35   14   39 1
    36   14   40 1
    37   17   18 1
    38   17   41 1
    39   17   42 1
    40   18   19 1
    41   18   43 1
    42   18   44 1
    43   19   20 1
    44   19   45 1
    45   19   46 1
    46   20   47 1
    47   20   48 1
    48   21   23 1
    49   21   49 1
    50   21   50 1
    51   22   24 1
    52   22   51 1
    53   22   52 1
    54   23   53 1
    55   23   54 1
    56   24   55 1
    57   24   56 1
    58   26   28 ar
    59   26   57 1
    60   27   28 ar
    61   27   58 1
    62   28   59 1
