@<TRIPOS>MOLECULE
DB00347
   19    19     0     0     0
SMALL
USER_CHARGES

@<TRIPOS>ATOM
      1 O1         -0.3639   -0.0098   -1.4487 O.3       1 <0>        -0.4345
      2 O2          0.2415    0.0427    1.9904 O.2       1 <0>        -0.2707
      3 O3          1.7322   -0.0147   -2.3454 O.2       1 <0>        -0.2258
      4 N1          1.3687   -0.0017   -0.0528 N.am      1 <0>        -0.2073
      5 C1         -0.9378   -0.0008   -0.1300 C.3       1 <0>         0.1851
      6 C2          0.2745    0.0175    0.7688 C.2       1 <0>         0.2675
      7 C3         -1.7526   -1.2698    0.0684 C.3       1 <0>        -0.0163
      8 C4         -1.7705    1.2603    0.0430 C.3       1 <0>        -0.0163
      9 C5          1.0013   -0.0090   -1.3642 C.2       1 <0>         0.4101
     10 C6          2.7451    0.0019    0.4020 C.3       1 <0>         0.0142
     11 H1         -1.1295   -2.1615   -0.0671 H         1 <0>         0.0273
     12 H2         -2.1906   -1.3146    1.0709 H         1 <0>         0.0273
     13 H3         -2.5588   -1.3349   -0.6706 H         1 <0>         0.0273
     14 H4         -2.5771    1.2994   -0.6975 H         1 <0>         0.0273
     15 H5         -2.2101    1.3186    1.0443 H         1 <0>         0.0273
     16 H6         -1.1599    2.1577   -0.1096 H         1 <0>         0.0273
     17 H7          3.2693   -0.8439   -0.0523 H         1 <0>         0.0434
     18 H8          2.7968   -0.0623    1.4914 H         1 <0>         0.0434
     19 H9          3.2214    0.9250    0.0589 H         1 <0>         0.0434
@<TRIPOS>BOND
     1    1    5 1
     2    1    9 1
     3    2    6 2
     4    3    9 2
     5    4    6 am
     6    4    9 am
     7    4   10 1
     8    5    6 1
     9    5    7 1
    10    5    8 1
    11    7   11 1
    12    7   12 1
    13    7   13 1
    14    8   14 1
    15    8   15 1
    16    8   16 1
    17   10   17 1
    18   10   18 1
    19   10   19 1
