@<TRIPOS>MOLECULE
DB00997
   68    72     0     0     0
SMALL
USER_CHARGES

@<TRIPOS>ATOM
      1 O1         -1.4825    0.7695    0.3440 O.3       1 <0>        -0.3432
      2 O2         -3.6413    1.4380    1.0652 O.3       1 <0>        -0.3457
      3 O3         -2.4823   -1.5729   -0.9101 O.3       1 <0>        -0.3806
      4 O4         -4.9569    3.6341   -0.2645 O.3       1 <0>        -0.3877
      5 O5          1.2692    1.3463    1.5180 O.3       1 <0>        -0.5057
      6 O6          1.8213   -3.6571   -0.7453 O.3       1 <0>        -0.5057
      7 O7         -3.8111   -3.3634    1.5033 O.2       1 <0>        -0.2919
      8 O8         -4.3292   -5.2488   -0.3397 O.3       1 <0>        -0.3874
      9 O9          3.7463    1.6765    1.1734 O.2       1 <0>        -0.2864
     10 O10         4.2752   -3.1630   -1.0282 O.2       1 <0>        -0.2865
     11 O11         6.2500    2.1616    0.9183 O.3       1 <0>        -0.4944
     12 N1         -2.6569    4.3709   -1.7925 N.3       1 <0>        -0.3249
     13 C1         -1.0295   -0.1967    1.2900 C.3       1 <0>         0.0934
     14 C2         -2.0909   -2.2642    0.2695 C.3       1 <0>         0.1325
     15 C3         -2.0782   -1.3016    1.4590 C.3       1 <0>         0.0141
     16 C4         -0.7228   -2.9282    0.0823 C.3       1 <0>         0.0123
     17 C5          0.3083   -0.7130    0.8221 C.ar      1 <0>         0.0302
     18 C6          0.4453   -1.9793    0.2279 C.ar      1 <0>         0.0070
     19 C7         -2.2581    1.7853    0.9738 C.3       1 <0>         0.1618
     20 C8         -2.0699    3.1103    0.2324 C.3       1 <0>         0.0161
     21 C9         -2.7583    3.0687   -1.1367 C.3       1 <0>         0.0382
     22 C10        -4.2240    2.6392   -0.9813 C.3       1 <0>         0.0963
     23 C11        -4.2970    1.3166   -0.2041 C.3       1 <0>         0.0861
     24 C12         1.4389    0.1116    0.9544 C.ar      1 <0>         0.1345
     25 C13        -3.1380   -3.3217    0.4745 C.2       1 <0>         0.1900
     26 C14         1.7133   -2.4077   -0.1994 C.ar      1 <0>         0.1322
     27 C15         2.6963   -0.3207    0.5178 C.ar      1 <0>         0.0784
     28 C16         2.8338   -1.5812   -0.0578 C.ar      1 <0>         0.0782
     29 C17        -5.7334    0.8830    0.0690 C.3       1 <0>        -0.0361
     30 C18        -3.3111   -4.3210   -0.6495 C.3       1 <0>         0.1051
     31 C19         3.8686    0.5651    0.6733 C.2       1 <0>         0.2016
     32 C20         4.1549   -2.0556   -0.5189 C.2       1 <0>         0.1982
     33 C21         5.1912    0.0903    0.2182 C.ar      1 <0>         0.0748
     34 C22         5.3296   -1.1746   -0.3567 C.ar      1 <0>         0.0367
     35 C23         6.3117    0.9165    0.3658 C.ar      1 <0>         0.1316
     36 C24         6.5885   -1.6138   -0.7839 C.ar      1 <0>        -0.0500
     37 C25         7.5645    0.4750   -0.0609 C.ar      1 <0>        -0.0192
     38 C26         7.7026   -0.7874   -0.6345 C.ar      1 <0>        -0.0576
     39 C27         6.0043    3.2511    0.0323 C.3       1 <0>         0.0788
     40 H1         -0.8843    0.2438    2.2863 H         1 <0>         0.0649
     41 H2         -1.8458   -1.8659    2.3735 H         1 <0>         0.0326
     42 H3         -3.0721   -0.8668    1.6019 H         1 <0>         0.0326
     43 H4         -0.6820   -3.3726   -0.9201 H         1 <0>         0.0347
     44 H5         -0.5971   -3.7279    0.8246 H         1 <0>         0.0347
     45 H6         -1.9096    1.9598    1.9988 H         1 <0>         0.0910
     46 H7         -1.0011    3.3215    0.1062 H         1 <0>         0.0330
     47 H8         -2.5027    3.9186    0.8363 H         1 <0>         0.0330
     48 H9         -2.2447    2.3350   -1.7703 H         1 <0>         0.0486
     49 H10        -4.6877    2.5292   -1.9692 H         1 <0>         0.0635
     50 H11        -3.8082    0.5300   -0.7858 H         1 <0>         0.0620
     51 H12        -2.2342   -2.0997   -1.6878 H         1 <0>         0.2108
     52 H13        -5.7400   -0.1061    0.5413 H         1 <0>         0.0255
     53 H14        -6.2352    1.5579    0.7704 H         1 <0>         0.0255
     54 H15        -6.3163    0.8271   -0.8551 H         1 <0>         0.0255
     55 H16        -1.6803    4.6600   -1.8332 H         1 <0>         0.1186
     56 H17        -3.1371    5.0760   -1.2342 H         1 <0>         0.1186
     57 H18        -2.3882   -4.8867   -0.7923 H         1 <0>         0.0637
     58 H19        -3.5830   -3.8155   -1.5791 H         1 <0>         0.0637
     59 H20        -5.9034    3.4585   -0.3983 H         1 <0>         0.2100
     60 H21         0.3671    1.6673    1.3671 H         1 <0>         0.2922
     61 H22         1.1383   -4.2488   -0.3930 H         1 <0>         0.2922
     62 H23         6.7224   -2.5936   -1.2342 H         1 <0>         0.0625
     63 H24        -5.1684   -4.7592   -0.2970 H         1 <0>         0.2100
     64 H25         8.4401    1.1093    0.0512 H         1 <0>         0.0654
     65 H26         8.6790   -1.1288   -0.9657 H         1 <0>         0.0619
     66 H27         6.9119    3.4791   -0.5353 H         1 <0>         0.0660
     67 H28         5.7375    4.1267    0.6305 H         1 <0>         0.0660
     68 H29         5.1828    3.0339   -0.6583 H         1 <0>         0.0660
@<TRIPOS>BOND
     1    1   13 1
     2    1   19 1
     3    2   19 1
     4    2   23 1
     5    3   14 1
     6    3   51 1
     7    4   22 1
     8    4   59 1
     9    5   24 1
    10    5   60 1
    11    6   26 1
    12    6   61 1
    13    7   25 2
    14    8   30 1
    15    8   63 1
    16    9   31 2
    17   10   32 2
    18   11   35 1
    19   11   39 1
    20   12   21 1
    21   12   55 1
    22   12   56 1
    23   13   15 1
    24   13   17 1
    25   13   40 1
    26   14   15 1
    27   14   16 1
    28   14   25 1
    29   15   41 1
    30   15   42 1
    31   16   18 1
    32   16   43 1
    33   16   44 1
    34   17   18 ar
    35   17   24 ar
    36   18   26 ar
    37   19   20 1
    38   19   45 1
    39   20   21 1
    40   20   46 1
    41   20   47 1
    42   21   22 1
    43   21   48 1
    44   22   23 1
    45   22   49 1
    46   23   29 1
    47   23   50 1
    48   24   27 ar
    49   25   30 1
    50   26   28 ar
    51   27   28 ar
    52   27   31 1
    53   28   32 1
    54   29   52 1
    55   29   53 1
    56   29   54 1
    57   30   57 1
    58   30   58 1
    59   31   33 1
    60   32   34 1
    61   33   34 ar
    62   33   35 ar
    63   34   36 ar
    64   35   37 ar
    65   36   38 ar
    66   36   62 1
    67   37   38 ar
    68   37   64 1
    69   38   65 1
    70   39   66 1
    71   39   67 1
    72   39   68 1
