@<TRIPOS>MOLECULE
DB00891
   28    29     0     0     0
SMALL
USER_CHARGES

@<TRIPOS>ATOM
      1 S1          0.3333    2.4895   -0.7078 S.o2      1 <0>         0.0735
      2 O1         -0.2579    3.7425   -0.2530 O.2       1 <0>        -0.1499
      3 O2          0.8585    2.4128   -2.0655 O.2       1 <0>        -0.1499
      4 N1          1.5631    2.0409    0.4123 N.pl3     1 <0>        -0.1995
      5 N2          2.7799    0.3889   -0.7519 N.ar      1 <0>        -0.2390
      6 N3         -3.7287   -1.7938    0.0071 N.pl3     1 <0>        -0.3580
      7 C1         -0.8593    1.2316   -0.4979 C.ar      1 <0>         0.1087
      8 C2         -1.8770    1.3857    0.4436 C.ar      1 <0>        -0.0333
      9 C3         -0.7944    0.0727   -1.2714 C.ar      1 <0>        -0.0333
     10 C4          2.0746    0.6981    0.3538 C.ar      1 <0>         0.1377
     11 C5         -2.7649   -0.7780   -0.1617 C.ar      1 <0>         0.0247
     12 C6         -2.8297    0.3808    0.6116 C.ar      1 <0>        -0.0392
     13 C7         -1.7472   -0.9321   -1.1033 C.ar      1 <0>        -0.0392
     14 C8          1.8242   -0.1707    1.3972 C.ar      1 <0>        -0.0204
     15 C9          2.3379   -1.4590    1.2984 C.ar      1 <0>        -0.0570
     16 C10         3.0721   -1.8245    0.1756 C.ar      1 <0>        -0.0435
     17 C11         3.2631   -0.8722   -0.8126 C.ar      1 <0>         0.0297
     18 H1          1.4329    2.3995    1.3678 H         1 <0>         0.1752
     19 H2         -1.9429    2.2761    1.0623 H         1 <0>         0.0638
     20 H3         -0.0110   -0.0696   -2.0103 H         1 <0>         0.0638
     21 H4         -3.6169    0.5119    1.3496 H         1 <0>         0.0636
     22 H5         -1.6856   -1.8308   -1.7117 H         1 <0>         0.0636
     23 H6          1.2481    0.1262    2.2667 H         1 <0>         0.0652
     24 H7          2.1653   -2.1772    2.0944 H         1 <0>         0.0619
     25 H8         -4.4657   -1.6836    0.6908 H         1 <0>         0.1423
     26 H9         -3.6809   -2.6350   -0.5522 H         1 <0>         0.1423
     27 H10         3.4814   -2.8233    0.0769 H         1 <0>         0.0633
     28 H11         3.8278   -1.1073   -1.7087 H         1 <0>         0.0830
@<TRIPOS>BOND
     1    1    2 2
     2    1    3 2
     3    1    4 1
     4    1    7 1
     5    4   10 1
     6    4   18 1
     7    5   10 ar
     8    5   17 ar
     9    6   11 1
    10    6   25 1
    11    6   26 1
    12    7    8 ar
    13    7    9 ar
    14    8   12 ar
    15    8   19 1
    16    9   13 ar
    17    9   20 1
    18   10   14 ar
    19   11   12 ar
    20   11   13 ar
    21   12   21 1
    22   13   22 1
    23   14   15 ar
    24   14   23 1
    25   15   16 ar
    26   15   24 1
    27   16   17 ar
    28   16   27 1
    29   17   28 1
