@<TRIPOS>MOLECULE
DB00606
   40    43     0     0     0
SMALL
USER_CHARGES

@<TRIPOS>ATOM
      1 Cl1         4.3535    3.0603   -0.0381 Cl        1 <0>        -0.0815
      2 S1          0.9021   -2.1440    0.4196 S.o2      1 <0>         0.0618
      3 S2          5.7554    0.1995    0.5108 S.o2      1 <0>         0.0574
      4 O1          0.6509   -2.3665    1.8296 O.2       1 <0>        -0.1529
      5 O2          1.5499   -3.1432   -0.4066 O.2       1 <0>        -0.1529
      6 O3          6.2519    1.4911    0.9760 O.2       1 <0>        -0.1532
      7 O4          5.9408   -0.9981    1.3233 O.2       1 <0>        -0.1532
      8 N1         -0.5436   -1.6607   -0.3532 N.pl3     1 <0>        -0.1696
      9 N2         -0.1595    0.7251   -0.0891 N.pl3     1 <0>        -0.3256
     10 N3          6.4395   -0.0921   -1.0396 N.pl3     1 <0>        -0.2035
     11 C1         -2.3799   -0.0833   -0.6565 C.3       1 <0>        -0.0011
     12 C2         -3.1479    1.1884   -0.2081 C.3       1 <0>        -0.0166
     13 C3         -4.7109   -0.4027   -0.0635 C.3       1 <0>        -0.0220
     14 C4         -3.4597   -1.1988   -0.4984 C.3       1 <0>        -0.0404
     15 C5         -4.5221    0.9095   -0.8313 C.3       1 <0>        -0.0401
     16 C6         -1.0942   -0.3669    0.1102 C.3       1 <0>         0.0947
     17 C7         -3.5316    1.0687    1.2487 C.2       1 <0>        -0.0842
     18 C8         -4.4657    0.1102    1.3358 C.2       1 <0>        -0.0845
     19 C9          1.2090    0.5739    0.0818 C.ar      1 <0>         0.0565
     20 C10         1.8452   -0.6558    0.3119 C.ar      1 <0>         0.1280
     21 C11         2.0340    1.7054   -0.0276 C.ar      1 <0>        -0.0186
     22 C12         3.2330   -0.7648    0.4410 C.ar      1 <0>        -0.0057
     23 C13         4.0210    0.3771    0.3397 C.ar      1 <0>         0.1252
     24 C14         3.4230    1.6118    0.1041 C.ar      1 <0>         0.0691
     25 H1         -2.1473    0.0122   -1.7280 H         1 <0>         0.0338
     26 H2         -2.7132    2.1464   -0.4955 H         1 <0>         0.0347
     27 H3         -5.6707   -0.8985   -0.2108 H         1 <0>         0.0343
     28 H4         -3.1913   -1.9672    0.2352 H         1 <0>         0.0275
     29 H5         -3.6311   -1.6882   -1.4642 H         1 <0>         0.0275
     30 H6         -4.4888    0.7745   -1.9185 H         1 <0>         0.0277
     31 H7         -5.2749    1.6706   -0.5890 H         1 <0>         0.0277
     32 H8         -1.3041   -0.4629    1.1824 H         1 <0>         0.0685
     33 H9         -3.0910    1.6112    2.0698 H         1 <0>         0.0572
     34 H10        -4.9192   -0.2626    2.2400 H         1 <0>         0.0572
     35 H11        -0.6013   -1.8228   -1.3668 H         1 <0>         0.1501
     36 H12        -0.5204    1.6706   -0.1477 H         1 <0>         0.1477
     37 H13         1.5785    2.6766   -0.2190 H         1 <0>         0.0652
     38 H14         3.6793   -1.7406    0.6099 H         1 <0>         0.0658
     39 H15         6.8503   -1.0260   -1.1736 H         1 <0>         0.1442
     40 H16         5.8511    0.1628   -1.8445 H         1 <0>         0.1442
@<TRIPOS>BOND
     1    1   24 1
     2    2    4 2
     3    2    5 2
     4    2    8 1
     5    2   20 1
     6    3    6 2
     7    3    7 2
     8    3   10 1
     9    3   23 1
    10    8   16 1
    11    8   35 1
    12    9   16 1
    13    9   19 1
    14    9   36 1
    15   10   39 1
    16   10   40 1
    17   11   12 1
    18   11   14 1
    19   11   16 1
    20   11   25 1
    21   12   15 1
    22   12   17 1
    23   12   26 1
    24   13   14 1
    25   13   15 1
    26   13   18 1
    27   13   27 1
    28   14   28 1
    29   14   29 1
    30   15   30 1
    31   15   31 1
    32   16   32 1
    33   17   18 2
    34   17   33 1
    35   18   34 1
    36   19   20 ar
    37   19   21 ar
    38   20   22 ar
    39   21   24 ar
    40   21   37 1
    41   22   23 ar
    42   22   38 1
    43   23   24 ar
