@<TRIPOS>MOLECULE
DB00598
   48    49     0     0     0
SMALL
USER_CHARGES

@<TRIPOS>ATOM
      1 O1          3.0375    0.5682    2.7348 O.3       1 <0>        -0.3859
      2 O2          2.8184   -3.6649   -1.8443 O.3       1 <0>        -0.5060
      3 O3          0.9007   -4.2826    0.9139 O.2       1 <0>        -0.2703
      4 N1          1.3185    2.1755   -0.1318 N.3       1 <0>        -0.3107
      5 N2         -0.3982   -3.2102   -0.6421 N.am      1 <0>        -0.3252
      6 C1          0.0698    2.9275   -0.2572 C.3       1 <0>         0.0052
      7 C2         -1.1272    2.0916    0.2334 C.3       1 <0>        -0.0338
      8 C3          1.5307    1.7572    1.2448 C.3       1 <0>         0.0263
      9 C4         -1.4209    0.8316   -0.5948 C.3       1 <0>        -0.0263
     10 C5          2.8388    0.9676    1.3794 C.3       1 <0>         0.0926
     11 C6         -0.1320    3.3443   -1.7144 C.3       1 <0>        -0.0497
     12 C7          2.8270   -0.2753    0.5169 C.ar      1 <0>        -0.0170
     13 C8         -2.6367    0.0678   -0.1336 C.ar      1 <0>        -0.0473
     14 C9          1.8288   -1.2166    0.7001 C.ar      1 <0>        -0.0404
     15 C10         3.8160   -0.4445   -0.4364 C.ar      1 <0>        -0.0526
     16 C11        -2.4935   -0.9289    0.8200 C.ar      1 <0>        -0.0586
     17 C12        -3.8777    0.3742   -0.6710 C.ar      1 <0>        -0.0586
     18 C13         1.8196   -2.3628   -0.0948 C.ar      1 <0>         0.0781
     19 C14         3.8066   -1.5909   -1.2313 C.ar      1 <0>        -0.0191
     20 C15         2.8083   -2.5499   -1.0605 C.ar      1 <0>         0.1290
     21 C16        -3.6179   -1.6359    1.2461 C.ar      1 <0>        -0.0615
     22 C17        -5.0022   -0.3325   -0.2446 C.ar      1 <0>        -0.0615
     23 C18        -4.8722   -1.3376    0.7139 C.ar      1 <0>        -0.0617
     24 C19         0.7693   -3.3525    0.1007 C.2       1 <0>         0.2451
     25 H1          0.1283    3.8400    0.3502 H         1 <0>         0.0458
     26 H2         -2.0148    2.7389    0.1666 H         1 <0>         0.0283
     27 H3         -1.0730    1.8552    1.3010 H         1 <0>         0.0283
     28 H4          2.1003    2.7491   -0.4465 H         1 <0>         0.1223
     29 H5          1.5837    2.6325    1.9056 H         1 <0>         0.0453
     30 H6          0.7287    1.1305    1.6419 H         1 <0>         0.0453
     31 H7         -0.5544    0.1603   -0.5807 H         1 <0>         0.0314
     32 H8         -1.5695    1.0889   -1.6501 H         1 <0>         0.0314
     33 H9          3.6861    1.6107    1.1099 H         1 <0>         0.0656
     34 H10        -0.0524    2.5008   -2.4082 H         1 <0>         0.0245
     35 H11        -1.1092    3.8178   -1.8578 H         1 <0>         0.0245
     36 H12         0.6324    4.0727   -2.0092 H         1 <0>         0.0245
     37 H13         1.0654   -1.0870    1.4620 H         1 <0>         0.0630
     38 H14         4.5984    0.2951   -0.5789 H         1 <0>         0.0622
     39 H15        -1.5235   -1.1614    1.2485 H         1 <0>         0.0620
     40 H16        -3.9898    1.1566   -1.4161 H         1 <0>         0.0620
     41 H17         3.0382    1.3736    3.2799 H         1 <0>         0.2103
     42 H18         4.5802   -1.7307   -1.9814 H         1 <0>         0.0654
     43 H19        -3.5168   -2.4169    1.9939 H         1 <0>         0.0618
     44 H20        -5.9790   -0.0999   -0.6585 H         1 <0>         0.0618
     45 H21        -5.7479   -1.8876    1.0462 H         1 <0>         0.0618
     46 H22         2.0700   -4.2422   -1.6221 H         1 <0>         0.2922
     47 H23        -1.1658   -3.8657   -0.5392 H         1 <0>         0.1453
     48 H24        -0.5267   -2.4517   -1.3044 H         1 <0>         0.1453
@<TRIPOS>BOND
     1    1   10 1
     2    1   41 1
     3    2   20 1
     4    2   46 1
     5    3   24 2
     6    4    6 1
     7    4    8 1
     8    4   28 1
     9    5   24 am
    10    5   47 1
    11    5   48 1
    12    6    7 1
    13    6   11 1
    14    6   25 1
    15    7    9 1
    16    7   26 1
    17    7   27 1
    18    8   10 1
    19    8   29 1
    20    8   30 1
    21    9   13 1
    22    9   31 1
    23    9   32 1
    24   10   12 1
    25   10   33 1
    26   11   34 1
    27   11   35 1
    28   11   36 1
    29   12   14 ar
    30   12   15 ar
    31   13   16 ar
    32   13   17 ar
    33   14   18 ar
    34   14   37 1
    35   15   19 ar
    36   15   38 1
    37   16   21 ar
    38   16   39 1
    39   17   22 ar
    40   17   40 1
    41   18   20 ar
    42   18   24 1
    43   19   20 ar
    44   19   42 1
    45   21   23 ar
    46   21   43 1
    47   22   23 ar
    48   22   44 1
    49   23   45 1
