@<TRIPOS>MOLECULE
DB00249
   28    29     0     0     0
SMALL
USER_CHARGES

@<TRIPOS>ATOM
      1 I1          2.8691   -3.3703   -0.4798 I         1 <0>        -0.0367
      2 O1         -0.8687   -0.0645    1.2463 O.3       1 <0>        -0.3483
      3 O2         -2.9489    1.9793    0.3149 O.3       1 <0>        -0.3890
      4 O3         -1.8859   -2.6438    0.8379 O.3       1 <0>        -0.3924
      5 O4          2.1530    2.6463    0.5168 O.2       1 <0>        -0.2464
      6 O5          4.9499   -0.8870   -0.3715 O.2       1 <0>        -0.2666
      7 N1          1.1981    0.5252    0.3214 N.am      1 <0>        -0.2730
      8 N2          3.5310    0.8675    0.0746 N.am      1 <0>        -0.2740
      9 C1         -2.3196    0.8950   -0.3645 C.3       1 <0>         0.0876
     10 C2         -0.1450    0.9665    0.5597 C.3       1 <0>         0.1422
     11 C3         -0.9010    1.2733   -0.7228 C.3       1 <0>         0.0214
     12 C4         -2.1334   -0.2763    0.5898 C.3       1 <0>         0.1100
     13 C5         -2.0705   -1.6195   -0.1258 C.3       1 <0>         0.0729
     14 C6          2.2763    1.4355    0.3200 C.2       1 <0>         0.3314
     15 C7          1.4200   -0.8269    0.0893 C.2       1 <0>         0.0302
     16 C8          2.6231   -1.3647   -0.1456 C.2       1 <0>         0.0939
     17 C9          3.8134   -0.4709   -0.1630 C.2       1 <0>         0.2671
     18 H1         -2.9358    0.6489   -1.2344 H         1 <0>         0.0621
     19 H2         -0.1362    1.8477    1.2122 H         1 <0>         0.0840
     20 H3         -0.5488    0.6437   -1.5489 H         1 <0>         0.0335
     21 H4         -0.7777    2.3192   -1.0211 H         1 <0>         0.0335
     22 H5         -2.8994   -0.3012    1.3728 H         1 <0>         0.0646
     23 H6         -1.2676   -1.6762   -0.8641 H         1 <0>         0.0584
     24 H7         -3.0169   -1.8105   -0.6429 H         1 <0>         0.0584
     25 H8         -2.9962    2.7245   -0.3081 H         1 <0>         0.2099
     26 H9          0.5611   -1.4777    0.1101 H         1 <0>         0.0823
     27 H10         4.3219    1.5056    0.0693 H         1 <0>         0.1735
     28 H11        -1.8652   -3.4887    0.3572 H         1 <0>         0.2095
@<TRIPOS>BOND
     1    1   16 1
     2    2   10 1
     3    2   12 1
     4    3    9 1
     5    3   25 1
     6    4   13 1
     7    4   28 1
     8    5   14 2
     9    6   17 2
    10    7   10 1
    11    7   14 am
    12    7   15 1
    13    8   14 am
    14    8   17 am
    15    8   27 1
    16    9   11 1
    17    9   12 1
    18    9   18 1
    19   10   11 1
    20   10   19 1
    21   11   20 1
    22   11   21 1
    23   12   13 1
    24   12   22 1
    25   13   23 1
    26   13   24 1
    27   15   16 2
    28   15   26 1
    29   16   17 1
