@<TRIPOS>MOLECULE
DB00321
   44    46     0     0     0
SMALL
USER_CHARGES

@<TRIPOS>ATOM
      1 N1          2.9142    1.2826    0.5947 N.3       1 <0>        -0.3081
      2 C1         -2.5113   -0.5152    1.6032 C.3       1 <0>        -0.0231
      3 C2         -1.1239   -1.1436    1.7416 C.3       1 <0>        -0.0231
      4 C3         -0.6066    0.1982   -0.7629 C.2       1 <0>        -0.0141
      5 C4         -2.7120    0.6183    0.6128 C.ar      1 <0>        -0.0393
      6 C5         -0.7406   -1.9335    0.5165 C.ar      1 <0>        -0.0393
      7 C6         -1.8552    0.9473   -0.4610 C.ar      1 <0>        -0.0144
      8 C7         -0.4941   -1.2742   -0.6992 C.ar      1 <0>        -0.0144
      9 C8          0.5282    0.8778   -1.0195 C.2       1 <0>        -0.0745
     10 C9          1.8349    0.2223   -1.3337 C.3       1 <0>        -0.0211
     11 C10        -3.8972    1.3679    0.7856 C.ar      1 <0>        -0.0580
     12 C11        -0.6331   -3.3303    0.5761 C.ar      1 <0>        -0.0580
     13 C12        -2.2242    2.0032   -1.3237 C.ar      1 <0>        -0.0538
     14 C13        -0.1516   -2.0200   -1.8376 C.ar      1 <0>        -0.0538
     15 C14         3.0058    1.0746   -0.8462 C.3       1 <0>         0.0018
     16 C15        -4.2326    2.4173   -0.0674 C.ar      1 <0>        -0.0615
     17 C16        -0.2876   -4.0629   -0.5594 C.ar      1 <0>        -0.0615
     18 C17        -3.3951    2.7341   -1.1254 C.ar      1 <0>        -0.0612
     19 C18        -0.0483   -3.4088   -1.7649 C.ar      1 <0>        -0.0612
     20 C19         4.0117    2.1301    1.0634 C.3       1 <0>        -0.0130
     21 C20         2.9246    0.0009    1.3016 C.3       1 <0>        -0.0130
     22 H1         -2.7779   -0.1321    2.5979 H         1 <0>         0.0316
     23 H2         -3.2405   -1.3000    1.3592 H         1 <0>         0.0316
     24 H3         -1.1294   -1.8083    2.6149 H         1 <0>         0.0316
     25 H4         -0.3637   -0.3816    1.9532 H         1 <0>         0.0316
     26 H5          0.5149    1.9657   -1.0538 H         1 <0>         0.0579
     27 H6          1.9203    0.1602   -2.4269 H         1 <0>         0.0320
     28 H7          1.9543   -0.7975   -0.9623 H         1 <0>         0.0320
     29 H8         -4.5775    1.1269    1.6007 H         1 <0>         0.0620
     30 H9         -0.8209   -3.8582    1.5077 H         1 <0>         0.0620
     31 H10        -1.6044    2.2648   -2.1798 H         1 <0>         0.0624
     32 H11         0.0215   -1.5325   -2.7943 H         1 <0>         0.0624
     33 H12         3.9497    0.5868   -1.1233 H         1 <0>         0.0429
     34 H13         2.9852    2.0429   -1.3639 H         1 <0>         0.0429
     35 H14        -5.1494    2.9768    0.0912 H         1 <0>         0.0618
     36 H15        -0.2084   -5.1446   -0.5035 H         1 <0>         0.0618
     37 H16        -3.6529    3.5424   -1.8031 H         1 <0>         0.0618
     38 H17         0.2149   -3.9803   -2.6502 H         1 <0>         0.0618
     39 H18         3.9892    3.1026    0.5591 H         1 <0>         0.0391
     40 H19         4.9921    1.6724    0.8877 H         1 <0>         0.0391
     41 H20         3.9118    2.3325    2.1357 H         1 <0>         0.0391
     42 H21         2.9830    0.1673    2.3844 H         1 <0>         0.0391
     43 H22         3.7788   -0.6249    1.0176 H         1 <0>         0.0391
     44 H23         2.0032   -0.5673    1.1569 H         1 <0>         0.0391
@<TRIPOS>BOND
     1    1   15 1
     2    1   20 1
     3    1   21 1
     4    2    3 1
     5    2    5 1
     6    2   22 1
     7    2   23 1
     8    3    6 1
     9    3   24 1
    10    3   25 1
    11    4    7 1
    12    4    8 1
    13    4    9 2
    14    5    7 ar
    15    5   11 ar
    16    6    8 ar
    17    6   12 ar
    18    7   13 ar
    19    8   14 ar
    20    9   10 1
    21    9   26 1
    22   10   15 1
    23   10   27 1
    24   10   28 1
    25   11   16 ar
    26   11   29 1
    27   12   17 ar
    28   12   30 1
    29   13   18 ar
    30   13   31 1
    31   14   19 ar
    32   14   32 1
    33   15   33 1
    34   15   34 1
    35   16   18 ar
    36   16   35 1
    37   17   19 ar
    38   17   36 1
    39   18   37 1
    40   19   38 1
    41   20   39 1
    42   20   40 1
    43   20   41 1
    44   21   42 1
    45   21   43 1
    46   21   44 1
