@<TRIPOS>MOLECULE
DB00437
   14    15     0     0     0
SMALL
USER_CHARGES

@<TRIPOS>ATOM
      1 O1          1.3287    2.5904   -0.0073 O.2       1 <0>        -0.2650
      2 N1         -1.3636   -1.2344    0.0072 N.pl3     1 <0>        -0.2830
      3 N2         -2.1075   -0.1179    0.0657 N.pl3     1 <0>        -0.3048
      4 N3          1.0509   -1.5110   -0.0108 N.2       1 <0>        -0.2163
      5 N4          2.3604    0.5189   -0.0142 N.2       1 <0>        -0.1969
      6 C1         -0.0009    0.6580    0.0231 C.2       1 <0>         0.1020
      7 C2         -0.0460   -0.8306    0.0038 C.2       1 <0>         0.1609
      8 C3         -1.2995    0.9935    0.0471 C.2       1 <0>         0.0348
      9 C4          1.2720    1.3673   -0.0019 C.2       1 <0>         0.2838
     10 C5          2.2219   -0.7775   -0.0161 C.2       1 <0>         0.1223
     11 H1         -1.7457    1.9747    0.0392 H         1 <0>         0.0831
     12 H2         -1.7328   -2.1730    0.0775 H         1 <0>         0.1883
     13 H3         -3.0848   -0.0805   -0.1887 H         1 <0>         0.1861
     14 H4          3.1469   -1.3776   -0.0245 H         1 <0>         0.1049
@<TRIPOS>BOND
     1    1    9 2
     2    2    3 2
     3    2    7 1
     4    2   12 1
     5    3    8 1
     6    3   13 1
     7    4    7 2
     8    4   10 1
     9    5    9 1
    10    5   10 2
    11    6    7 1
    12    6    8 2
    13    6    9 1
    14    8   11 1
    15   10   14 1
