@<TRIPOS>MOLECULE
DB00266
   37    40     0     0     0
SMALL
USER_CHARGES

@<TRIPOS>ATOM
      1 O1          2.3252    1.9157   -0.3386 O.3       1 <0>        -0.4218
      2 O2         -2.3269   -1.9179   -0.3307 O.3       1 <0>        -0.4218
      3 O3          2.2973   -1.8640    1.4578 O.3       1 <0>        -0.5055
      4 O4         -2.2935    1.8733    1.4413 O.3       1 <0>        -0.5055
      5 O5          0.3329    2.4237    0.6345 O.2       1 <0>        -0.2447
      6 O6         -0.3317   -2.4197    0.6397 O.2       1 <0>        -0.2447
      7 C1          0.0110    0.0079    1.9398 C.3       1 <0>         0.0182
      8 C2          1.2129    0.2626    1.1067 C.2       1 <0>         0.0835
      9 C3         -1.2102   -0.2556    1.1008 C.2       1 <0>         0.0835
     10 C4         -2.2223    0.6093    0.8960 C.2       1 <0>         0.1378
     11 C5          2.2243   -0.6035    0.9045 C.2       1 <0>         0.1378
     12 C6         -3.3602    0.2482    0.0474 C.ar      1 <0>         0.0593
     13 C7          3.3597   -0.2481    0.0502 C.ar      1 <0>         0.0593
     14 C8         -3.3781   -1.0102   -0.5436 C.ar      1 <0>         0.1426
     15 C9          3.3756    1.0066   -0.5489 C.ar      1 <0>         0.1426
     16 C10        -1.2349   -1.6068    0.4681 C.2       1 <0>         0.3443
     17 C11         1.2357    1.6097    0.4654 C.2       1 <0>         0.3443
     18 C12        -4.4401    1.1055   -0.2049 C.ar      1 <0>        -0.0475
     19 C13         4.4389   -1.1068   -0.1999 C.ar      1 <0>        -0.0475
     20 C14         4.4188    1.4236   -1.3770 C.ar      1 <0>        -0.0185
     21 C15        -4.4238   -1.4324   -1.3657 C.ar      1 <0>        -0.0185
     22 C16         5.4927   -0.7051   -1.0279 C.ar      1 <0>        -0.0609
     23 C17        -5.4966    0.6985   -1.0270 C.ar      1 <0>        -0.0609
     24 C18         5.4822    0.5589   -1.6159 C.ar      1 <0>        -0.0582
     25 C19        -5.4879   -0.5693   -1.6069 C.ar      1 <0>        -0.0582
     26 H1         -0.1374    0.8485    2.6280 H         1 <0>         0.0368
     27 H2          0.1507   -0.8298    2.6330 H         1 <0>         0.0368
     28 H3         -4.4816    2.1015    0.2294 H         1 <0>         0.0626
     29 H4          4.4817   -2.1000    0.2406 H         1 <0>         0.0626
     30 H5         -4.4128   -2.4209   -1.8149 H         1 <0>         0.0654
     31 H6          4.4065    2.4092   -1.8325 H         1 <0>         0.0654
     32 H7         -6.3268    1.3737   -1.2139 H         1 <0>         0.0618
     33 H8          6.3223   -1.3816   -1.2130 H         1 <0>         0.0618
     34 H9         -6.3096   -0.8816   -2.2444 H         1 <0>         0.0619
     35 H10         6.3020    0.8671   -2.2579 H         1 <0>         0.0619
     36 H11         1.4838   -2.0552    1.9488 H         1 <0>         0.2922
     37 H12        -1.4798    2.0651    1.9316 H         1 <0>         0.2922
@<TRIPOS>BOND
     1    1   15 1
     2    1   17 1
     3    2   14 1
     4    2   16 1
     5    3   11 1
     6    3   36 1
     7    4   10 1
     8    4   37 1
     9    5   17 2
    10    6   16 2
    11    7    8 1
    12    7    9 1
    13    7   26 1
    14    7   27 1
    15    8   11 2
    16    8   17 1
    17    9   10 2
    18    9   16 1
    19   10   12 1
    20   11   13 1
    21   12   14 ar
    22   12   18 ar
    23   13   15 ar
    24   13   19 ar
    25   14   21 ar
    26   15   20 ar
    27   18   23 ar
    28   18   28 1
    29   19   22 ar
    30   19   29 1
    31   20   24 ar
    32   20   31 1
    33   21   25 ar
    34   21   30 1
    35   22   24 ar
    36   22   33 1
    37   23   25 ar
    38   23   32 1
    39   24   35 1
    40   25   34 1
