@<TRIPOS>MOLECULE
DB00925
   43    44     0     0     0
SMALL
USER_CHARGES

@<TRIPOS>ATOM
      1 Cl1         4.0736   -2.2918    2.4079 Cl        1 <0>        -0.1241
      2 O1         -1.7782   -1.1767    0.8598 O.3       1 <0>        -0.4904
      3 N1          0.9631   -0.8641    0.2839 N.3       1 <0>        -0.2912
      4 C1          0.2785   -2.1309    0.0314 C.3       1 <0>         0.0420
      5 C2          0.9138   -0.0106   -0.9028 C.3       1 <0>         0.0245
      6 C3          2.3496   -1.1025    0.6842 C.3       1 <0>         0.0131
      7 C4         -1.2000   -1.8580   -0.2468 C.3       1 <0>         0.1048
      8 C5          0.9485   -2.8674   -1.1291 C.3       1 <0>        -0.0463
      9 C6          1.5573    1.3284   -0.6579 C.ar      1 <0>        -0.0334
     10 C7          2.3902   -2.0122    1.9023 C.3       1 <0>         0.0354
     11 C8          0.7865    2.3806   -0.1834 C.ar      1 <0>        -0.0573
     12 C9          2.9121    1.4918   -0.9104 C.ar      1 <0>        -0.0573
     13 C10        -2.8427   -0.3569    0.5921 C.ar      1 <0>         0.1206
     14 C11         1.3825    3.6213    0.0430 C.ar      1 <0>        -0.0615
     15 C12         3.5083    2.7324   -0.6839 C.ar      1 <0>        -0.0615
     16 C13         2.7434    3.7970   -0.2071 C.ar      1 <0>        -0.0617
     17 C14        -3.6898   -0.6531   -0.4699 C.ar      1 <0>        -0.0199
     18 C15        -3.0650    0.7637    1.3845 C.ar      1 <0>        -0.0199
     19 C16        -4.7732    0.1822   -0.7431 C.ar      1 <0>        -0.0583
     20 C17        -4.1483    1.5989    1.1115 C.ar      1 <0>        -0.0583
     21 C18        -5.0023    1.3081    0.0477 C.ar      1 <0>        -0.0615
     22 H1          0.2656   -2.7651    0.9215 H         1 <0>         0.0493
     23 H2          1.4152   -0.4472   -1.7747 H         1 <0>         0.0476
     24 H3         -0.1088    0.2097   -1.2237 H         1 <0>         0.0476
     25 H4          2.8047   -0.1664    1.0253 H         1 <0>         0.0438
     26 H5          2.9853   -1.4869   -0.1215 H         1 <0>         0.0438
     27 H6         -1.3415   -1.3417   -1.2028 H         1 <0>         0.0712
     28 H7         -1.7131   -2.8250   -0.3403 H         1 <0>         0.0712
     29 H8          0.4584   -3.8435   -1.2443 H         1 <0>         0.0246
     30 H9          0.8299   -2.3752   -2.0985 H         1 <0>         0.0246
     31 H10         2.0044   -3.0966   -0.9672 H         1 <0>         0.0246
     32 H11         2.0177   -3.0195    1.7162 H         1 <0>         0.0442
     33 H12         1.8525   -1.5818    2.7531 H         1 <0>         0.0442
     34 H13        -0.2737    2.2546    0.0174 H         1 <0>         0.0621
     35 H14         3.5192    0.6777   -1.2962 H         1 <0>         0.0621
     36 H15         0.7872    4.4499    0.4149 H         1 <0>         0.0618
     37 H16         4.5672    2.8704   -0.8817 H         1 <0>         0.0618
     38 H17         3.2075    4.7631   -0.0314 H         1 <0>         0.0618
     39 H18        -3.5679   -1.5363   -1.0892 H         1 <0>         0.0654
     40 H19        -2.4011    0.9944    2.2128 H         1 <0>         0.0654
     41 H20        -5.4430   -0.0479   -1.5665 H         1 <0>         0.0619
     42 H21        -4.3266    2.4757    1.7271 H         1 <0>         0.0619
     43 H22        -5.8468    1.9575   -0.1640 H         1 <0>         0.0618
@<TRIPOS>BOND
     1    1   10 1
     2    2    7 1
     3    2   13 1
     4    3    4 1
     5    3    5 1
     6    3    6 1
     7    4    7 1
     8    4    8 1
     9    4   22 1
    10    5    9 1
    11    5   23 1
    12    5   24 1
    13    6   10 1
    14    6   25 1
    15    6   26 1
    16    7   27 1
    17    7   28 1
    18    8   29 1
    19    8   30 1
    20    8   31 1
    21    9   11 ar
    22    9   12 ar
    23   10   32 1
    24   10   33 1
    25   11   14 ar
    26   11   34 1
    27   12   15 ar
    28   12   35 1
    29   13   17 ar
    30   13   18 ar
    31   14   16 ar
    32   14   36 1
    33   15   16 ar
    34   15   37 1
    35   16   38 1
    36   17   19 ar
    37   17   39 1
    38   18   20 ar
    39   18   40 1
    40   19   21 ar
    41   19   41 1
    42   20   21 ar
    43   20   42 1
    44   21   43 1
