@<TRIPOS>MOLECULE
DB00696
   78    85     0     0     0
SMALL
USER_CHARGES

@<TRIPOS>ATOM
      1 O1          1.3466   -1.5378   -1.3775 O.3       1 <0>        -0.2988
      2 O2          1.9092   -1.2405    0.8860 O.3       1 <0>        -0.3481
      3 O3          6.2838   -0.8523    0.8555 O.2       1 <0>        -0.2735
      4 O4          2.6106    1.6475   -2.1739 O.2       1 <0>        -0.2704
      5 O5         -1.6832   -1.0783   -1.8958 O.2       1 <0>        -0.2750
      6 N1          4.6218   -2.2807    0.1581 N.am      1 <0>        -0.2900
      7 N2          3.0976   -0.1970   -0.8109 N.am      1 <0>        -0.2331
      8 N3          0.0130    0.3969   -1.2867 N.am      1 <0>        -0.2798
      9 N4         -4.0222    2.4964   -0.7863 N.3       1 <0>        -0.2971
     10 N5         -9.0248   -0.2267    1.1604 N.pl3     1 <0>        -0.3604
     11 C1          3.3985   -2.5488   -0.5838 C.3       1 <0>         0.0987
     12 C2          2.4135   -1.4036   -0.4325 C.3       1 <0>         0.2691
     13 C3          2.9768   -3.9372   -0.1042 C.3       1 <0>        -0.0261
     14 C4          4.4044    0.1569   -0.2657 C.3       1 <0>         0.1113
     15 C5          5.1816   -3.5030    0.7141 C.3       1 <0>         0.0154
     16 C6          4.3266   -4.6179    0.1234 C.3       1 <0>        -0.0352
     17 C7          1.0988   -0.2539   -1.9663 C.3       1 <0>         0.2150
     18 C8          5.1961   -1.0336    0.3024 C.2       1 <0>         0.2371
     19 C9          2.3563    0.5464   -1.7115 C.2       1 <0>         0.2707
     20 C10         4.2620    1.2354    0.8079 C.3       1 <0>        -0.0003
     21 C11         0.8140   -0.4226   -3.4471 C.3       1 <0>        -0.0096
     22 C12        -2.2224    0.7797   -0.4979 C.3       1 <0>         0.0670
     23 C13        -5.0810    1.4812   -0.5355 C.3       1 <0>         0.0397
     24 C14        -1.2935   -0.0724   -1.3086 C.2       1 <0>         0.2235
     25 C15         5.5364    2.0138    0.9822 C.ar      1 <0>        -0.0451
     26 C16        -2.8445    1.8591   -1.3937 C.3       1 <0>         0.0138
     27 C17        -4.5659    0.1379    0.0613 C.2       1 <0>        -0.0254
     28 C18        -6.3261    2.0997    0.1971 C.3       1 <0>        -0.0059
     29 C19        -3.2494   -0.1406    0.0967 C.2       1 <0>        -0.0658
     30 C20        -5.5784   -0.8339    0.5399 C.2       1 <0>        -0.0112
     31 C21        -7.3024    1.0376    0.5539 C.2       1 <0>        -0.0200
     32 C22        -6.8606   -0.2937    0.7133 C.2       1 <0>         0.0103
     33 C23        -3.6488    3.2948    0.3815 C.3       1 <0>        -0.0121
     34 C24         6.4839    1.5809    1.9009 C.ar      1 <0>        -0.0585
     35 C25         5.7515    3.1562    0.2220 C.ar      1 <0>        -0.0585
     36 C26        -7.9379   -1.0722    1.1057 C.2       1 <0>         0.0473
     37 C27        -8.6486    1.0570    0.8310 C.2       1 <0>         0.0060
     38 C28        -5.4268   -2.2039    0.7935 C.2       1 <0>        -0.0536
     39 C29        -7.8005   -2.4369    1.3618 C.2       1 <0>        -0.0378
     40 C30         7.6664    2.3028    2.0626 C.ar      1 <0>        -0.0615
     41 C31         6.9342    3.8781    0.3836 C.ar      1 <0>        -0.0615
     42 C32        -6.5192   -2.9841    1.1994 C.2       1 <0>        -0.0592
     43 C33         7.8915    3.4513    1.3039 C.ar      1 <0>        -0.0617
     44 H1          3.6977   -2.6308   -1.6397 H         1 <0>         0.0572
     45 H2          2.3588   -4.4633   -0.8376 H         1 <0>         0.0286
     46 H3          2.4321   -3.9055    0.8445 H         1 <0>         0.0286
     47 H4          4.9817    0.5473   -1.1145 H         1 <0>         0.0602
     48 H5          5.0815   -3.4502    1.8035 H         1 <0>         0.0465
     49 H6          6.2419   -3.5925    0.4600 H         1 <0>         0.0465
     50 H7          4.2606   -5.4903    0.7793 H         1 <0>         0.0281
     51 H8          4.7441   -4.9421   -0.8376 H         1 <0>         0.0281
     52 H9          3.4576    1.9387    0.5541 H         1 <0>         0.0336
     53 H10         3.9602    0.7933    1.7672 H         1 <0>         0.0336
     54 H11         1.6432   -2.1076    1.2280 H         1 <0>         0.2145
     55 H12         0.2153    1.2438   -0.7624 H         1 <0>         0.1519
     56 H13         0.0438   -1.1748   -3.6423 H         1 <0>         0.0279
     57 H14         0.5077    0.5210   -3.9118 H         1 <0>         0.0279
     58 H15         1.7124   -0.7726   -3.9703 H         1 <0>         0.0279
     59 H16        -1.6702    1.2409    0.3307 H         1 <0>         0.0450
     60 H17        -5.4541    1.2027   -1.5351 H         1 <0>         0.0515
     61 H18        -2.0903    2.6173   -1.6433 H         1 <0>         0.0437
     62 H19        -3.1372    1.4325   -2.3637 H         1 <0>         0.0437
     63 H20        -6.7962    2.8572   -0.4412 H         1 <0>         0.0332
     64 H21        -6.0328    2.5842    1.1354 H         1 <0>         0.0332
     65 H22        -2.8842   -1.0560    0.5553 H         1 <0>         0.0583
     66 H23        -2.7790    3.9248    0.1603 H         1 <0>         0.0391
     67 H24        -4.4494    3.9925    0.6468 H         1 <0>         0.0391
     68 H25        -3.4116    2.6855    1.2598 H         1 <0>         0.0391
     69 H26         6.3006    0.7347    2.5564 H         1 <0>         0.0620
     70 H27         5.0134    3.4960   -0.4993 H         1 <0>         0.0620
     71 H28        -9.3731    1.8591    0.8398 H         1 <0>         0.0810
     72 H29        -4.4648   -2.6931    0.6659 H         1 <0>         0.0624
     73 H30        -9.9617   -0.5048    1.4180 H         1 <0>         0.1653
     74 H31        -8.6400   -3.0491    1.6704 H         1 <0>         0.0638
     75 H32         8.4043    1.9806    2.7915 H         1 <0>         0.0618
     76 H33         7.1095    4.7726   -0.2069 H         1 <0>         0.0618
     77 H34        -6.3712   -4.0455    1.3861 H         1 <0>         0.0618
     78 H35         8.8106    4.0156    1.4326 H         1 <0>         0.0618
@<TRIPOS>BOND
     1    1   12 1
     2    1   17 1
     3    2   12 1
     4    2   54 1
     5    3   18 2
     6    4   19 2
     7    5   24 2
     8    6   11 1
     9    6   15 1
    10    6   18 am
    11    7   12 1
    12    7   14 1
    13    7   19 am
    14    8   17 1
    15    8   24 am
    16    8   55 1
    17    9   23 1
    18    9   26 1
    19    9   33 1
    20   10   36 1
    21   10   37 2
    22   10   73 1
    23   11   12 1
    24   11   13 1
    25   11   44 1
    26   13   16 1
    27   13   45 1
    28   13   46 1
    29   14   18 1
    30   14   20 1
    31   14   47 1
    32   15   16 1
    33   15   48 1
    34   15   49 1
    35   16   50 1
    36   16   51 1
    37   17   19 1
    38   17   21 1
    39   20   25 1
    40   20   52 1
    41   20   53 1
    42   21   56 1
    43   21   57 1
    44   21   58 1
    45   22   24 1
    46   22   26 1
    47   22   29 1
    48   22   59 1
    49   23   27 1
    50   23   28 1
    51   23   60 1
    52   25   34 ar
    53   25   35 ar
    54   26   61 1
    55   26   62 1
    56   27   29 2
    57   27   30 1
    58   28   31 1
    59   28   63 1
    60   28   64 1
    61   29   65 1
    62   30   32 1
    63   30   38 2
    64   31   32 2
    65   31   37 1
    66   32   36 2
    67   33   66 1
    68   33   67 1
    69   33   68 1
    70   34   40 ar
    71   34   69 1
    72   35   41 ar
    73   35   70 1
    74   36   39 1
    75   37   71 1
    76   38   42 1
    77   38   72 1
    78   39   42 2
    79   39   74 1
    80   40   43 ar
    81   40   75 1
    82   41   43 ar
    83   41   76 1
    84   42   77 1
    85   43   78 1
