@<TRIPOS>MOLECULE
DB00366
   42    43     0     0     0
SMALL
USER_CHARGES

@<TRIPOS>ATOM
      1 O1          0.0783   -0.9506    0.0973 O.3       1 <0>        -0.3616
      2 N1          3.7565   -0.8368    0.3062 N.3       1 <0>        -0.3062
      3 N2         -0.6302    2.1861    1.0599 N.ar      1 <0>        -0.2566
      4 C1         -0.9884   -0.1671    0.6146 C.3       1 <0>         0.1332
      5 C2         -2.3351   -0.7375    0.1520 C.ar      1 <0>        -0.0103
      6 C3         -0.7878    1.2647    0.1074 C.ar      1 <0>         0.0771
      7 C4         -0.8654   -0.3416    2.1417 C.3       1 <0>        -0.0259
      8 C5          1.3425   -0.4471    0.5088 C.3       1 <0>         0.0620
      9 C6          2.4337   -1.3286   -0.0776 C.3       1 <0>         0.0218
     10 C7         -3.4862   -0.0921    0.5353 C.ar      1 <0>        -0.0555
     11 C8         -2.3342   -1.8696   -0.6270 C.ar      1 <0>        -0.0555
     12 C9         -0.7878    1.4698   -1.2437 C.ar      1 <0>        -0.0372
     13 C10        -4.7107   -0.6105    0.1144 C.ar      1 <0>        -0.0614
     14 C11        -3.5589   -2.3880   -1.0478 C.ar      1 <0>        -0.0614
     15 C12        -0.6032    2.7799   -1.6713 C.ar      1 <0>        -0.0585
     16 C13        -4.7473   -1.7583   -0.6772 C.ar      1 <0>        -0.0617
     17 C14         3.9394    0.5425   -0.1442 C.3       1 <0>        -0.0130
     18 C15         4.8018   -1.6978   -0.2459 C.3       1 <0>        -0.0130
     19 C16        -0.4537    3.4475    0.6066 C.ar      1 <0>         0.0280
     20 C17        -0.4323    3.7936   -0.7349 C.ar      1 <0>        -0.0436
     21 H1         -0.0445    0.2189    2.6005 H         1 <0>         0.0265
     22 H2         -0.7404   -1.3972    2.4143 H         1 <0>         0.0265
     23 H3         -1.7620    0.0190    2.6612 H         1 <0>         0.0265
     24 H4          1.4718    0.5746    0.1544 H         1 <0>         0.0573
     25 H5          1.4761   -0.4792    1.5927 H         1 <0>         0.0573
     26 H6          2.2893   -2.3530    0.2896 H         1 <0>         0.0449
     27 H7          2.3198   -1.3786   -1.1691 H         1 <0>         0.0449
     28 H8         -3.4742    0.8031    1.1489 H         1 <0>         0.0621
     29 H9         -1.4317   -2.3865   -0.9340 H         1 <0>         0.0621
     30 H10        -0.9148    0.6739   -1.9678 H         1 <0>         0.0636
     31 H11        -5.6360   -0.1200    0.4024 H         1 <0>         0.0618
     32 H12        -3.5879   -3.2818   -1.6641 H         1 <0>         0.0618
     33 H13        -0.5910    3.0105   -2.7323 H         1 <0>         0.0619
     34 H14        -5.7007   -2.1619   -1.0050 H         1 <0>         0.0618
     35 H15         3.3806    1.2526    0.4733 H         1 <0>         0.0391
     36 H16         3.6718    0.6819   -1.1981 H         1 <0>         0.0391
     37 H17         4.9880    0.8447   -0.0295 H         1 <0>         0.0391
     38 H18         5.7913   -1.3675    0.0897 H         1 <0>         0.0391
     39 H19         4.7942   -1.7074   -1.3420 H         1 <0>         0.0391
     40 H20         4.6802   -2.7273    0.1091 H         1 <0>         0.0391
     41 H21        -0.3246    4.2009    1.3767 H         1 <0>         0.0829
     42 H22        -0.2863    4.8218   -1.0453 H         1 <0>         0.0633
@<TRIPOS>BOND
     1    1    4 1
     2    1    8 1
     3    2    9 1
     4    2   17 1
     5    2   18 1
     6    3    6 ar
     7    3   19 ar
     8    4    5 1
     9    4    6 1
    10    4    7 1
    11    5   10 ar
    12    5   11 ar
    13    6   12 ar
    14    7   21 1
    15    7   22 1
    16    7   23 1
    17    8    9 1
    18    8   24 1
    19    8   25 1
    20    9   26 1
    21    9   27 1
    22   10   13 ar
    23   10   28 1
    24   11   14 ar
    25   11   29 1
    26   12   15 ar
    27   12   30 1
    28   13   16 ar
    29   13   31 1
    30   14   16 ar
    31   14   32 1
    32   15   20 ar
    33   15   33 1
    34   16   34 1
    35   17   35 1
    36   17   36 1
    37   17   37 1
    38   18   38 1
    39   18   39 1
    40   18   40 1
    41   19   20 ar
    42   19   41 1
    43   20   42 1
