@<TRIPOS>MOLECULE
DB00946
   37    39     0     0     0
SMALL
USER_CHARGES

@<TRIPOS>ATOM
      1 O1         -2.2428   -0.6497   -1.8596 O.3       1 <0>        -0.4217
      2 O2         -0.2856    0.3800    1.6933 O.3       1 <0>        -0.5055
      3 O3         -0.3168   -1.5195   -2.7013 O.2       1 <0>        -0.2447
      4 C1          1.2769   -0.9564   -0.5003 C.3       1 <0>         0.0193
      5 C2          1.5629   -2.0134    0.5860 C.3       1 <0>        -0.0447
      6 C3         -0.1840   -0.5951   -0.5115 C.2       1 <0>         0.0862
      7 C4          2.1388    0.2868   -0.3765 C.ar      1 <0>        -0.0396
      8 C5         -0.8496    0.0096    0.4911 C.2       1 <0>         0.1381
      9 C6         -2.2746    0.3248    0.3657 C.ar      1 <0>         0.0593
     10 C7          0.6924   -3.2574    0.4491 C.3       1 <0>        -0.0644
     11 C8         -0.8931   -0.9625   -1.7719 C.2       1 <0>         0.3446
     12 C9          1.6488    1.5209   -0.8038 C.ar      1 <0>        -0.0580
     13 C10         3.4212    0.1950    0.1644 C.ar      1 <0>        -0.0580
     14 C11        -2.9311   -0.0155   -0.8118 C.ar      1 <0>         0.1426
     15 C12        -3.0193    0.9548    1.3722 C.ar      1 <0>        -0.0475
     16 C13         2.4411    2.6632   -0.6901 C.ar      1 <0>        -0.0615
     17 C14         4.2137    1.3373    0.2780 C.ar      1 <0>        -0.0615
     18 C15        -4.2865    0.2498   -1.0124 C.ar      1 <0>        -0.0185
     19 C16         3.7236    2.5714   -0.1493 C.ar      1 <0>        -0.0617
     20 C17        -4.3790    1.2285    1.1875 C.ar      1 <0>        -0.0609
     21 C18        -5.0116    0.8764   -0.0037 C.ar      1 <0>        -0.0582
     22 H1          1.5831   -1.4065   -1.4531 H         1 <0>         0.0400
     23 H2          1.4704   -1.6180    1.6029 H         1 <0>         0.0272
     24 H3          2.5958   -2.3693    0.4931 H         1 <0>         0.0272
     25 H4         -0.3580   -3.0496    0.6733 H         1 <0>         0.0230
     26 H5          1.0286   -4.0261    1.1531 H         1 <0>         0.0230
     27 H6          0.7584   -3.6768   -0.5600 H         1 <0>         0.0230
     28 H7          0.6750    1.6414   -1.2680 H         1 <0>         0.0620
     29 H8          3.8545   -0.7426    0.4926 H         1 <0>         0.0620
     30 H9         -2.5604    1.2444    2.3144 H         1 <0>         0.0626
     31 H10         2.0637    3.6229   -1.0311 H         1 <0>         0.0618
     32 H11         5.2142    1.2658    0.6946 H         1 <0>         0.0618
     33 H12        -4.7749   -0.0267   -1.9420 H         1 <0>         0.0654
     34 H13         4.3418    3.4603   -0.0638 H         1 <0>         0.0618
     35 H14        -4.9435    1.7176    1.9764 H         1 <0>         0.0618
     36 H15         0.6727    0.2440    1.6658 H         1 <0>         0.2922
     37 H16        -6.0669    1.0904   -0.1434 H         1 <0>         0.0619
@<TRIPOS>BOND
     1    1   11 1
     2    1   14 1
     3    2    8 1
     4    2   36 1
     5    3   11 2
     6    4    5 1
     7    4    6 1
     8    4    7 1
     9    4   22 1
    10    5   10 1
    11    5   23 1
    12    5   24 1
    13    6    8 2
    14    6   11 1
    15    7   12 ar
    16    7   13 ar
    17    8    9 1
    18    9   14 ar
    19    9   15 ar
    20   10   25 1
    21   10   26 1
    22   10   27 1
    23   12   16 ar
    24   12   28 1
    25   13   17 ar
    26   13   29 1
    27   14   18 ar
    28   15   20 ar
    29   15   30 1
    30   16   19 ar
    31   16   31 1
    32   17   19 ar
    33   17   32 1
    34   18   21 ar
    35   18   33 1
    36   19   34 1
    37   20   21 ar
    38   20   35 1
    39   21   37 1
