@<TRIPOS>MOLECULE
DB00176
   43    43     0     0     0
SMALL
USER_CHARGES

@<TRIPOS>ATOM
      1 F1         -6.1087   -2.7294   -0.4560 F         1 <0>        -0.1659
      2 F2         -6.9269   -1.0883    0.7022 F         1 <0>        -0.1659
      3 F3         -6.7002   -0.8887   -1.4512 F         1 <0>        -0.1659
      4 O1          3.8618   -3.3938    0.4840 O.3       1 <0>        -0.3830
      5 O2          0.7941    2.3792    0.1697 O.3       1 <0>        -0.3923
      6 N1         -0.5258    1.9838   -0.0756 N.2       1 <0>        -0.0890
      7 N2          2.6248    5.4687   -0.6198 N.3       1 <0>        -0.3270
      8 C1          1.1027   -0.8788    0.0638 C.3       1 <0>        -0.0454
      9 C2          0.2838   -0.0734    1.0725 C.3       1 <0>        -0.0066
     10 C3          2.1275   -1.7666    0.7655 C.3       1 <0>        -0.0291
     11 C4         -0.7669    0.7856    0.3713 C.2       1 <0>         0.0872
     12 C5         -2.1441    0.2278    0.1887 C.ar      1 <0>        -0.0006
     13 C6          2.9192   -2.6045   -0.2284 C.3       1 <0>         0.0473
     14 C7         -3.2452    1.0836    0.1584 C.ar      1 <0>        -0.0522
     15 C8         -2.3260   -1.1481    0.0487 C.ar      1 <0>        -0.0522
     16 C9         -4.7100   -0.8124   -0.1523 C.ar      1 <0>         0.0548
     17 C10        -4.5282    0.5634   -0.0122 C.ar      1 <0>        -0.0495
     18 C11        -3.6089   -1.6683   -0.1219 C.ar      1 <0>        -0.0495
     19 C12        -6.0815   -1.3690   -0.3334 C.3       1 <0>         0.4174
     20 C13         0.9661    3.6892   -0.3480 C.3       1 <0>         0.1301
     21 C14         4.6227   -4.2153   -0.3915 C.3       1 <0>         0.0364
     22 C15         2.3968    4.1331   -0.0887 C.3       1 <0>         0.0302
     23 H1          0.4639   -1.4899   -0.5799 H         1 <0>         0.0270
     24 H2          1.6260   -0.1875   -0.6091 H         1 <0>         0.0270
     25 H3          0.9353    0.5598    1.6850 H         1 <0>         0.0329
     26 H4         -0.2163   -0.7477    1.7778 H         1 <0>         0.0329
     27 H5          2.8178   -1.1541    1.3589 H         1 <0>         0.0287
     28 H6          1.6268   -2.4328    1.4792 H         1 <0>         0.0287
     29 H7          3.4476   -1.9525   -0.9338 H         1 <0>         0.0560
     30 H8          2.2428   -3.2590   -0.7908 H         1 <0>         0.0560
     31 H9         -3.1287    2.1579    0.2730 H         1 <0>         0.0624
     32 H10        -1.5044   -1.8530    0.0759 H         1 <0>         0.0624
     33 H11        -5.3804    1.2377   -0.0327 H         1 <0>         0.0623
     34 H12        -3.7312   -2.7428   -0.2269 H         1 <0>         0.0623
     35 H13         0.2591    4.3689    0.1437 H         1 <0>         0.0736
     36 H14         0.7576    3.6830   -1.4251 H         1 <0>         0.0736
     37 H15         5.3295   -4.7951    0.2082 H         1 <0>         0.0523
     38 H16         5.1870   -3.6014   -1.1000 H         1 <0>         0.0523
     39 H17         3.9702   -4.9096   -0.9299 H         1 <0>         0.0523
     40 H18         3.0950    3.4265   -0.5513 H         1 <0>         0.0456
     41 H19         2.6049    4.1151    0.9873 H         1 <0>         0.0456
     42 H20         1.9986    6.1316   -0.1647 H         1 <0>         0.1183
     43 H21         3.5720    5.7671   -0.3908 H         1 <0>         0.1183
@<TRIPOS>BOND
     1    1   19 1
     2    2   19 1
     3    3   19 1
     4    4   13 1
     5    4   21 1
     6    5    6 1
     7    5   20 1
     8    6   11 2
     9    7   22 1
    10    7   42 1
    11    7   43 1
    12    8    9 1
    13    8   10 1
    14    8   23 1
    15    8   24 1
    16    9   11 1
    17    9   25 1
    18    9   26 1
    19   10   13 1
    20   10   27 1
    21   10   28 1
    22   11   12 1
    23   12   14 ar
    24   12   15 ar
    25   13   29 1
    26   13   30 1
    27   14   17 ar
    28   14   31 1
    29   15   18 ar
    30   15   32 1
    31   16   17 ar
    32   16   18 ar
    33   16   19 1
    34   17   33 1
    35   18   34 1
    36   20   22 1
    37   20   35 1
    38   20   36 1
    39   21   37 1
    40   21   38 1
    41   21   39 1
    42   22   40 1
    43   22   41 1
