@<TRIPOS>MOLECULE
DB00951
   17    17     0     0     0
SMALL
USER_CHARGES

@<TRIPOS>ATOM
      1 O1         -1.2492   -1.8964   -0.7266 O.2       1 <0>        -0.2689
      2 N1         -2.0128    0.1270    0.1132 N.am      1 <0>        -0.2496
      3 N2          3.0037    0.5819    0.1287 N.ar      1 <0>        -0.2632
      4 N3         -3.3390   -0.2498    0.0237 N.3       1 <0>        -0.2541
      5 C1          0.3650   -0.2994   -0.1423 C.ar      1 <0>         0.0408
      6 C2          1.3933   -1.2187    0.0345 C.ar      1 <0>        -0.0314
      7 C3          0.6545    1.0598   -0.1835 C.ar      1 <0>        -0.0314
      8 C4         -1.0072   -0.7582   -0.2846 C.2       1 <0>         0.2575
      9 C5          2.6838   -0.7311    0.1637 C.ar      1 <0>         0.0283
     10 C6          1.9780    1.4455   -0.0444 C.ar      1 <0>         0.0283
     11 H1          1.2108   -2.2872    0.0763 H         1 <0>         0.0640
     12 H2         -0.0975    1.8238   -0.3451 H         1 <0>         0.0640
     13 H3          3.5213   -1.4065    0.3044 H         1 <0>         0.0830
     14 H4          2.2578    2.4935   -0.0761 H         1 <0>         0.0830
     15 H5         -1.8217    1.0343    0.5252 H         1 <0>         0.1690
     16 H6         -3.7294   -0.1820    0.9627 H         1 <0>         0.1405
     17 H7         -3.8115    0.4635   -0.5298 H         1 <0>         0.1405
@<TRIPOS>BOND
     1    1    8 2
     2    2    4 1
     3    2    8 am
     4    2   15 1
     5    3    9 ar
     6    3   10 ar
     7    4   16 1
     8    4   17 1
     9    5    6 ar
    10    5    7 ar
    11    5    8 1
    12    6    9 ar
    13    6   11 1
    14    7   10 ar
    15    7   12 1
    16    9   13 1
    17   10   14 1
