@<TRIPOS>MOLECULE
DB00166
   26    26     0     0     0
SMALL
USER_CHARGES

@<TRIPOS>ATOM
      1 S1          2.1985   -1.6224   -0.9594 S.3       1 <0>        -0.0897
      2 S2          4.2452   -1.5925   -1.0854 S.3       1 <0>        -0.0928
      3 O1         -5.4485   -0.5720    0.0812 O.3       1 <0>        -0.4806
      4 O2         -4.4667    1.3952   -0.4872 O.2       1 <0>        -0.2510
      5 C1          2.0234   -0.2337    0.2028 C.3       1 <0>         0.0162
      6 C2          0.7295    0.5233   -0.0545 C.3       1 <0>        -0.0403
      7 C3          3.2584    0.6493    0.0079 C.3       1 <0>        -0.0305
      8 C4         -0.5262   -0.3336    0.1217 C.3       1 <0>        -0.0515
      9 C5         -1.8591    0.3944   -0.0739 C.3       1 <0>        -0.0430
     10 C6          4.5167   -0.2096    0.0498 C.3       1 <0>         0.0050
     11 C7         -3.0784   -0.4934    0.1727 C.3       1 <0>         0.0448
     12 C8         -4.3720    0.2324   -0.1204 C.2       1 <0>         0.3047
     13 H1          2.0181   -0.6434    1.2200 H         1 <0>         0.0421
     14 H2          0.6726    1.3716    0.6398 H         1 <0>         0.0276
     15 H3          0.7295    0.9567   -1.0634 H         1 <0>         0.0276
     16 H4          3.3049    1.4103    0.7961 H         1 <0>         0.0284
     17 H5          3.2061    1.1959   -0.9441 H         1 <0>         0.0284
     18 H6         -0.5152   -1.1758   -0.5788 H         1 <0>         0.0266
     19 H7         -0.5136   -0.7682    1.1298 H         1 <0>         0.0266
     20 H8         -1.8998    1.2599    0.5994 H         1 <0>         0.0270
     21 H9         -1.8962    0.7962   -1.0945 H         1 <0>         0.0270
     22 H10         5.3984    0.3618   -0.2541 H         1 <0>         0.0385
     23 H11         4.6915   -0.6013    1.0571 H         1 <0>         0.0385
     24 H12        -3.0946   -0.8196    1.2181 H         1 <0>         0.0377
     25 H13        -3.0306   -1.3747   -0.4765 H         1 <0>         0.0377
     26 H14        -6.2920   -0.1067   -0.1042 H         1 <0>         0.2951
@<TRIPOS>BOND
     1    1    2 1
     2    1    5 1
     3    2   10 1
     4    3   12 1
     5    3   26 1
     6    4   12 2
     7    5    6 1
     8    5    7 1
     9    5   13 1
    10    6    8 1
    11    6   14 1
    12    6   15 1
    13    7   10 1
    14    7   16 1
    15    7   17 1
    16    8    9 1
    17    8   18 1
    18    8   19 1
    19    9   11 1
    20    9   20 1
    21    9   21 1
    22   10   22 1
    23   10   23 1
    24   11   12 1
    25   11   24 1
    26   11   25 1
