@<TRIPOS>MOLECULE
DB00684
   69    71     0     0     0
SMALL
USER_CHARGES

@<TRIPOS>ATOM
      1 O1         -1.3740    0.9857    0.3458 O.3       1 <0>        -0.3413
      2 O2          1.1847    0.1573   -0.6104 O.3       1 <0>        -0.3423
      3 O3          0.0378    3.2468   -2.1430 O.3       1 <0>        -0.3865
      4 O4         -3.6953    0.7511   -0.0662 O.3       1 <0>        -0.3406
      5 O5          3.2678   -0.8628   -1.0807 O.3       1 <0>        -0.3427
      6 O6         -1.7707    0.3273    3.0100 O.3       1 <0>        -0.3851
      7 O7         -3.4502   -2.9237   -0.1447 O.3       1 <0>        -0.3875
      8 O8          2.8827   -3.3763    1.5765 O.3       1 <0>        -0.3891
      9 O9         -4.5186    0.3736   -2.6389 O.3       1 <0>        -0.3924
     10 N1         -0.2685    4.4989    0.5847 N.3       1 <0>        -0.3250
     11 N2          2.4671    3.6165   -0.4347 N.3       1 <0>        -0.3250
     12 N3         -0.1730   -1.9908   -1.9372 N.3       1 <0>        -0.3231
     13 N4         -2.9485   -2.3599    2.6561 N.3       1 <0>        -0.3229
     14 N5          5.5023   -0.1672    0.4878 N.3       1 <0>        -0.3276
     15 C1         -0.9952    2.2617   -0.1753 C.3       1 <0>         0.1051
     16 C2          1.3047    1.5168   -1.0350 C.3       1 <0>         0.1051
     17 C3         -0.0948    2.0374   -1.4027 C.3       1 <0>         0.1104
     18 C4         -0.3262    3.0814    0.9445 C.3       1 <0>         0.0355
     19 C5          1.9978    2.3284    0.0762 C.3       1 <0>         0.0355
     20 C6          1.0674    2.5212    1.2876 C.3       1 <0>        -0.0175
     21 C7         -2.6856    1.0254    0.9054 C.3       1 <0>         0.1874
     22 C8          1.8994   -0.7194   -1.4788 C.3       1 <0>         0.1752
     23 C9         -2.7980    0.0374    2.0685 C.3       1 <0>         0.1234
     24 C10         1.2271   -2.0983   -1.5367 C.3       1 <0>         0.0590
     25 C11        -2.6934   -1.4092    1.5676 C.3       1 <0>         0.0647
     26 C12        -3.7045   -1.6457    0.4333 C.3       1 <0>         0.1012
     27 C13        -3.5883   -0.5549   -0.6435 C.3       1 <0>         0.1120
     28 C14         1.3402   -2.8076   -0.1871 C.3       1 <0>        -0.0044
     29 C15         2.8028   -2.8545    0.2559 C.3       1 <0>         0.0842
     30 C16         3.4296   -1.4562    0.2126 C.3       1 <0>         0.0998
     31 C17        -4.6892   -0.6675   -1.6950 C.3       1 <0>         0.0730
     32 C18         4.9258   -1.5032    0.5087 C.3       1 <0>         0.0221
     33 H1         -1.8920    2.7913   -0.5294 H         1 <0>         0.0639
     34 H2          1.9436    1.5905   -1.9266 H         1 <0>         0.0639
     35 H3         -0.5844    1.3045   -2.0567 H         1 <0>         0.0646
     36 H4         -0.9261    3.0114    1.8594 H         1 <0>         0.0485
     37 H5          2.8768    1.7724    0.4246 H         1 <0>         0.0485
     38 H6          1.5540    3.1578    2.0388 H         1 <0>         0.0297
     39 H7          0.9346    1.5460    1.7761 H         1 <0>         0.0297
     40 H8         -2.8926    2.0240    1.3101 H         1 <0>         0.0937
     41 H9          1.9024   -0.3318   -2.5062 H         1 <0>         0.0926
     42 H10        -3.7678    0.1740    2.5649 H         1 <0>         0.0660
     43 H11         1.7568   -2.7089   -2.2797 H         1 <0>         0.0509
     44 H12        -1.6738   -1.6065    1.2127 H         1 <0>         0.0512
     45 H13        -4.7232   -1.6515    0.8417 H         1 <0>         0.0636
     46 H14        -2.6260   -0.6242   -1.1652 H         1 <0>         0.0646
     47 H15         0.9397   -3.8277   -0.2461 H         1 <0>         0.0308
     48 H16         0.7401   -2.2974    0.5786 H         1 <0>         0.0308
     49 H17        -1.2129    4.8580    0.4512 H         1 <0>         0.1185
     50 H18         0.1373    5.0317    1.3528 H         1 <0>         0.1185
     51 H19         3.1421    3.4647   -1.1830 H         1 <0>         0.1185
     52 H20         2.9611    4.1187    0.3017 H         1 <0>         0.1185
     53 H21         3.3545   -3.5272   -0.4126 H         1 <0>         0.0620
     54 H22         2.9536   -0.8149    0.9674 H         1 <0>         0.0635
     55 H23         0.5539    3.0487   -2.9428 H         1 <0>         0.2100
     56 H24        -5.6774   -0.5458   -1.2388 H         1 <0>         0.0584
     57 H25        -4.6470   -1.6288   -2.2161 H         1 <0>         0.0584
     58 H26         5.4396   -2.1097   -0.2462 H         1 <0>         0.0448
     59 H27         5.1134   -1.9547    1.4882 H         1 <0>         0.0448
     60 H28        -0.5788   -2.9214   -2.0251 H         1 <0>         0.1186
     61 H29        -0.2353   -1.5591   -2.8581 H         1 <0>         0.1186
     62 H30        -2.8287   -3.3117    2.3117 H         1 <0>         0.1186
     63 H31        -2.2556   -2.2280    3.3918 H         1 <0>         0.1186
     64 H32        -1.9000    1.2417    3.3145 H         1 <0>         0.2101
     65 H33        -2.5537   -2.9094   -0.5211 H         1 <0>         0.2100
     66 H34         2.4772   -4.2601    1.5677 H         1 <0>         0.2099
     67 H35         6.5121   -0.2306    0.6097 H         1 <0>         0.1183
     68 H36         5.3491    0.2592   -0.4251 H         1 <0>         0.1183
     69 H37        -5.2299    0.2849   -3.2959 H         1 <0>         0.2095
@<TRIPOS>BOND
     1    1   15 1
     2    1   21 1
     3    2   16 1
     4    2   22 1
     5    3   17 1
     6    3   55 1
     7    4   21 1
     8    4   27 1
     9    5   22 1
    10    5   30 1
    11    6   23 1
    12    6   64 1
    13    7   26 1
    14    7   65 1
    15    8   29 1
    16    8   66 1
    17    9   31 1
    18    9   69 1
    19   10   18 1
    20   10   49 1
    21   10   50 1
    22   11   19 1
    23   11   51 1
    24   11   52 1
    25   12   24 1
    26   12   60 1
    27   12   61 1
    28   13   25 1
    29   13   62 1
    30   13   63 1
    31   14   32 1
    32   14   67 1
    33   14   68 1
    34   15   17 1
    35   15   18 1
    36   15   33 1
    37   16   17 1
    38   16   19 1
    39   16   34 1
    40   17   35 1
    41   18   20 1
    42   18   36 1
    43   19   20 1
    44   19   37 1
    45   20   38 1
    46   20   39 1
    47   21   23 1
    48   21   40 1
    49   22   24 1
    50   22   41 1
    51   23   25 1
    52   23   42 1
    53   24   28 1
    54   24   43 1
    55   25   26 1
    56   25   44 1
    57   26   27 1
    58   26   45 1
    59   27   31 1
    60   27   46 1
    61   28   29 1
    62   28   47 1
    63   28   48 1
    64   29   30 1
    65   29   53 1
    66   30   32 1
    67   30   54 1
    68   31   56 1
    69   31   57 1
    70   32   58 1
    71   32   59 1
