@<TRIPOS>MOLECULE
DB00455
   50    53     0     0     0
SMALL
USER_CHARGES

@<TRIPOS>ATOM
      1 Cl1         3.1836   -5.7549   -0.3868 Cl        1 <0>        -0.0835
      2 O1         -4.6578    0.1206    0.3214 O.3       1 <0>        -0.4505
      3 O2         -4.2794    2.3718    0.2065 O.2       1 <0>        -0.2263
      4 N1         -2.4890    0.8960    0.3405 N.am      1 <0>        -0.2668
      5 N2          2.2719    2.0094   -1.6371 N.ar      1 <0>        -0.2547
      6 C1          0.1063    0.2776   -0.6634 C.2       1 <0>        -0.0568
      7 C2         -0.4327    1.6808   -0.7826 C.3       1 <0>        -0.0148
      8 C3         -0.9505   -0.7962   -0.6008 C.3       1 <0>        -0.0148
      9 C4          1.4175    0.0087   -0.5943 C.2       1 <0>         0.0073
     10 C5         -1.4682    1.9478    0.3105 C.3       1 <0>         0.0215
     11 C6         -1.9773   -0.4744    0.4869 C.3       1 <0>         0.0215
     12 C7          1.8792   -1.4017   -0.4775 C.ar      1 <0>        -0.0126
     13 C8          2.3127    1.1824   -0.5616 C.ar      1 <0>         0.0747
     14 C9          2.9122   -1.8116    0.3951 C.ar      1 <0>        -0.0379
     15 C10         3.7059   -0.9152    1.3292 C.3       1 <0>        -0.0230
     16 C11         3.1340    0.4504    1.7070 C.3       1 <0>        -0.0216
     17 C12         3.1370    1.3983    0.5420 C.ar      1 <0>        -0.0211
     18 C13         1.2910   -2.3676   -1.3255 C.ar      1 <0>        -0.0523
     19 C14        -3.8464    1.2235    0.2832 C.2       1 <0>         0.4029
     20 C15         3.3026   -3.1703    0.3924 C.ar      1 <0>        -0.0396
     21 C16         3.9602    2.5271    0.5233 C.ar      1 <0>        -0.0551
     22 C17         1.6871   -3.7047   -1.3011 C.ar      1 <0>        -0.0428
     23 C18         2.6937   -4.1078   -0.4385 C.ar      1 <0>         0.0413
     24 C19         3.9394    3.3882   -0.5679 C.ar      1 <0>        -0.0433
     25 C20         3.0853    3.0878   -1.6132 C.ar      1 <0>         0.0283
     26 C21        -6.0668    0.3714    0.2667 C.3       1 <0>         0.0913
     27 C22        -6.8051   -0.9492    0.3191 C.3       1 <0>        -0.0305
     28 H1          0.2760    2.5019   -0.6985 H         1 <0>         0.0325
     29 H2         -0.9112    1.7780   -1.7660 H         1 <0>         0.0325
     30 H3         -1.4547   -0.8558   -1.5734 H         1 <0>         0.0325
     31 H4         -0.6328   -1.7965   -0.3194 H         1 <0>         0.0325
     32 H5         -0.9921    1.9666    1.2988 H         1 <0>         0.0469
     33 H6         -1.9317    2.9267    0.1511 H         1 <0>         0.0469
     34 H7         -2.7891   -1.2066    0.4550 H         1 <0>         0.0469
     35 H8         -1.5194   -0.5395    1.4819 H         1 <0>         0.0469
     36 H9          3.8440   -1.4627    2.2718 H         1 <0>         0.0317
     37 H10         4.7042   -0.7820    0.8904 H         1 <0>         0.0317
     38 H11         3.7428    0.8701    2.5180 H         1 <0>         0.0317
     39 H12         2.1184    0.3577    2.1121 H         1 <0>         0.0317
     40 H13         0.5781   -2.0901   -2.1003 H         1 <0>         0.0624
     41 H14         4.1032   -3.4924    1.0577 H         1 <0>         0.0635
     42 H15         4.6229    2.7421    1.3573 H         1 <0>         0.0621
     43 H16         1.2152   -4.4109   -1.9792 H         1 <0>         0.0632
     44 H17         4.5725    4.2675   -0.5970 H         1 <0>         0.0633
     45 H18         3.0293    3.7277   -2.4874 H         1 <0>         0.0830
     46 H19        -6.3599    0.9933    1.1197 H         1 <0>         0.0695
     47 H20        -6.3083    0.8935   -0.6658 H         1 <0>         0.0695
     48 H21        -7.8870   -0.7946    0.2792 H         1 <0>         0.0262
     49 H22        -6.5080   -1.5901   -0.5176 H         1 <0>         0.0262
     50 H23        -6.5589   -1.4920    1.2378 H         1 <0>         0.0262
@<TRIPOS>BOND
     1    1   23 1
     2    2   19 1
     3    2   26 1
     4    3   19 2
     5    4   10 1
     6    4   11 1
     7    4   19 am
     8    5   13 ar
     9    5   25 ar
    10    6    7 1
    11    6    8 1
    12    6    9 2
    13    7   10 1
    14    7   28 1
    15    7   29 1
    16    8   11 1
    17    8   30 1
    18    8   31 1
    19    9   12 1
    20    9   13 1
    21   10   32 1
    22   10   33 1
    23   11   34 1
    24   11   35 1
    25   12   14 ar
    26   12   18 ar
    27   13   17 ar
    28   14   15 1
    29   14   20 ar
    30   15   16 1
    31   15   36 1
    32   15   37 1
    33   16   17 1
    34   16   38 1
    35   16   39 1
    36   17   21 ar
    37   18   22 ar
    38   18   40 1
    39   20   23 ar
    40   20   41 1
    41   21   24 ar
    42   21   42 1
    43   22   23 ar
    44   22   43 1
    45   24   25 ar
    46   24   44 1
    47   25   45 1
    48   26   27 1
    49   26   46 1
    50   26   47 1
    51   27   48 1
    52   27   49 1
    53   27   50 1
