@<TRIPOS>MOLECULE
DB00372
   56    59     0     0     0
SMALL
USER_CHARGES

@<TRIPOS>ATOM
      1 S1          3.1070   -0.0395   -2.4880 S.3       1 <0>        -0.0857
      2 S2          0.5912   -5.0208    0.5506 S.3       1 <0>        -0.1254
      3 N1         -1.6024    1.5650    0.6339 N.3       1 <0>        -0.2999
      4 N2         -4.0712    1.7416   -0.8604 N.3       1 <0>        -0.3029
      5 N3          2.4161   -0.1174    0.5419 N.pl3     1 <0>        -0.2982
      6 C1         -1.9494    2.7732   -0.1245 C.3       1 <0>         0.0117
      7 C2         -2.2027    0.3793    0.0106 C.3       1 <0>         0.0117
      8 C3         -0.1524    1.4177    0.7405 C.3       1 <0>         0.0004
      9 C4         -3.4699    2.9278   -0.2388 C.3       1 <0>         0.0114
     10 C5         -3.7233    0.5335   -0.1025 C.3       1 <0>         0.0114
     11 C6          0.2392    0.2430    1.6425 C.3       1 <0>        -0.0240
     12 C7          1.7446    0.0635    1.8354 C.3       1 <0>         0.0185
     13 C8         -5.5215    1.8891   -0.9649 C.3       1 <0>        -0.0127
     14 C9          2.1244   -1.2988   -0.1857 C.ar      1 <0>         0.0489
     15 C10         3.3562    0.8694    0.1507 C.ar      1 <0>         0.0479
     16 C11         2.4138   -1.3943   -1.5613 C.ar      1 <0>         0.0342
     17 C12         3.7679    0.9886   -1.1914 C.ar      1 <0>         0.0341
     18 C13         1.5684   -2.4399    0.4328 C.ar      1 <0>        -0.0258
     19 C14         3.9484    1.7493    1.0831 C.ar      1 <0>        -0.0393
     20 C15         2.1294   -2.5711   -2.2766 C.ar      1 <0>        -0.0451
     21 C16         1.2926   -3.6089   -0.2818 C.ar      1 <0>         0.0097
     22 C17         4.7068    1.9636   -1.5725 C.ar      1 <0>        -0.0462
     23 C18         1.5705   -3.6734   -1.6386 C.ar      1 <0>        -0.0472
     24 C19         4.8849    2.7132    0.6997 C.ar      1 <0>        -0.0599
     25 C20         5.2624    2.8225   -0.6300 C.ar      1 <0>        -0.0606
     26 C21        -0.9730   -4.3423    1.1728 C.3       1 <0>        -0.0045
     27 C22        -1.8340   -3.8498    0.0251 C.3       1 <0>        -0.0559
     28 H1         -1.5048    2.7467   -1.1287 H         1 <0>         0.0439
     29 H2         -1.5516    3.6591    0.3853 H         1 <0>         0.0439
     30 H3         -2.0466   -0.5189    0.6143 H         1 <0>         0.0439
     31 H4         -1.7722    0.1925   -0.9825 H         1 <0>         0.0439
     32 H5          0.2900    1.3000   -0.2563 H         1 <0>         0.0427
     33 H6          0.2745    2.3311    1.1740 H         1 <0>         0.0427
     34 H7         -3.6813    3.8138   -0.8499 H         1 <0>         0.0439
     35 H8         -3.8981    3.1080    0.7568 H         1 <0>         0.0439
     36 H9         -4.1681    0.5597    0.9018 H         1 <0>         0.0439
     37 H10        -4.1228   -0.3514   -0.6131 H         1 <0>         0.0439
     38 H11        -0.2114    0.3932    2.6330 H         1 <0>         0.0293
     39 H12        -0.1784   -0.6931    1.2701 H         1 <0>         0.0293
     40 H13         2.0475    0.9536    2.3882 H         1 <0>         0.0468
     41 H14         1.9678   -0.7608    2.5226 H         1 <0>         0.0468
     42 H15        -5.9605    1.0217   -1.4701 H         1 <0>         0.0391
     43 H16        -5.9997    1.9954    0.0156 H         1 <0>         0.0391
     44 H17        -5.7759    2.7668   -1.5695 H         1 <0>         0.0391
     45 H18         1.3676   -2.4489    1.5006 H         1 <0>         0.0647
     46 H19         3.7638    1.6908    2.1506 H         1 <0>         0.0636
     47 H20         2.3418   -2.6412   -3.3416 H         1 <0>         0.0630
     48 H21         5.0170    2.0633   -2.6108 H         1 <0>         0.0629
     49 H22         1.3633   -4.5705   -2.2161 H         1 <0>         0.0629
     50 H23         5.3276    3.3665    1.4461 H         1 <0>         0.0618
     51 H24         5.9904    3.5686   -0.9330 H         1 <0>         0.0618
     52 H25        -0.7827   -3.5359    1.8874 H         1 <0>         0.0377
     53 H26        -1.4958   -5.1399    1.7099 H         1 <0>         0.0377
     54 H27        -1.3992   -2.9848   -0.4847 H         1 <0>         0.0238
     55 H28        -2.0173   -4.6378   -0.7134 H         1 <0>         0.0238
     56 H29        -2.8090   -3.5317    0.4109 H         1 <0>         0.0238
@<TRIPOS>BOND
     1    1   16 1
     2    1   17 1
     3    2   21 1
     4    2   26 1
     5    3    6 1
     6    3    7 1
     7    3    8 1
     8    4    9 1
     9    4   10 1
    10    4   13 1
    11    5   12 1
    12    5   14 1
    13    5   15 1
    14    6    9 1
    15    6   28 1
    16    6   29 1
    17    7   10 1
    18    7   30 1
    19    7   31 1
    20    8   11 1
    21    8   32 1
    22    8   33 1
    23    9   34 1
    24    9   35 1
    25   10   36 1
    26   10   37 1
    27   11   12 1
    28   11   38 1
    29   11   39 1
    30   12   40 1
    31   12   41 1
    32   13   42 1
    33   13   43 1
    34   13   44 1
    35   14   16 ar
    36   14   18 ar
    37   15   17 ar
    38   15   19 ar
    39   16   20 ar
    40   17   22 ar
    41   18   21 ar
    42   18   45 1
    43   19   24 ar
    44   19   46 1
    45   20   23 ar
    46   20   47 1
    47   21   23 ar
    48   22   25 ar
    49   22   48 1
    50   23   49 1
    51   24   25 ar
    52   24   50 1
    53   25   51 1
    54   26   27 1
    55   26   52 1
    56   26   53 1
    57   27   54 1
    58   27   55 1
    59   27   56 1
