@<TRIPOS>MOLECULE
DB00471
   77    81     0     0     0
SMALL
USER_CHARGES

@<TRIPOS>ATOM
      1 Cl1       -10.5905    0.3603    1.7012 Cl        1 <0>        -0.0835
      2 S1          1.6066    2.5269   -0.9085 S.3       1 <0>        -0.1521
      3 O1          5.1336    4.5334   -2.4005 O.3       1 <0>        -0.4806
      4 O2          5.1241    4.9647   -0.1658 O.2       1 <0>        -0.2510
      5 O3          3.7535   -2.8016    1.6751 O.3       1 <0>        -0.3845
      6 N1         -5.6967   -0.0182    0.4149 N.ar      1 <0>        -0.2472
      7 C1          2.2289    5.0993   -0.2993 C.3       1 <0>        -0.0102
      8 C2          2.0512    6.2463    0.6518 C.3       1 <0>        -0.0456
      9 C3          0.9250    5.8404   -0.2530 C.3       1 <0>        -0.0456
     10 C4          2.2685    3.7207    0.2694 C.3       1 <0>         0.0004
     11 C5          3.1056    5.3055   -1.4843 C.3       1 <0>         0.0511
     12 C6          4.5461    4.9279   -1.2418 C.2       1 <0>         0.3053
     13 C7          1.8257    1.0185    0.1356 C.3       1 <0>         0.0305
     14 C8          2.0327   -0.2033   -0.8049 C.3       1 <0>        -0.0331
     15 C9          0.7231    0.9072    1.1336 C.ar      1 <0>        -0.0339
     16 C10         2.4868   -1.4829   -0.0780 C.3       1 <0>        -0.0260
     17 C11        -0.5873    0.6959    0.7046 C.ar      1 <0>        -0.0504
     18 C12         1.0022    1.0145    2.4961 C.ar      1 <0>        -0.0575
     19 C13         2.8278   -2.6484   -0.9705 C.ar      1 <0>        -0.0414
     20 C14         3.2519   -3.8637   -0.4333 C.ar      1 <0>        -0.0135
     21 C15        -1.6185    0.5923    1.6381 C.ar      1 <0>        -0.0247
     22 C16        -0.0290    0.9107    3.4295 C.ar      1 <0>        -0.0609
     23 C17         3.3818   -4.0475    1.0432 C.3       1 <0>         0.0856
     24 C18         2.7142   -2.4987   -2.3528 C.ar      1 <0>        -0.0582
     25 C19        -1.3394    0.6996    3.0005 C.ar      1 <0>        -0.0546
     26 C20         3.5627   -4.9292   -1.2781 C.ar      1 <0>        -0.0556
     27 C21         3.0248   -3.5643   -3.1977 C.ar      1 <0>        -0.0615
     28 C22        -3.0032    0.3698    1.1857 C.2       1 <0>        -0.0526
     29 C23         4.4746   -5.0552    1.4797 C.3       1 <0>        -0.0321
     30 C24         2.0324   -4.4751    1.6609 C.3       1 <0>        -0.0321
     31 C25         3.4490   -4.7795   -2.6602 C.ar      1 <0>        -0.0614
     32 C26        -3.3597   -0.1240   -0.0237 C.2       1 <0>        -0.0357
     33 C27        -4.7259   -0.3613   -0.4625 C.ar      1 <0>         0.0646
     34 C28        -4.9653   -0.9062   -1.7077 C.ar      1 <0>        -0.0357
     35 C29        -6.9788   -0.2186    0.0561 C.ar      1 <0>         0.0730
     36 C30        -6.2873   -1.1115   -2.0746 C.ar      1 <0>        -0.0506
     37 C31        -7.3240   -0.7701   -1.1956 C.ar      1 <0>         0.0005
     38 C32        -8.0090    0.1203    0.9290 C.ar      1 <0>        -0.0174
     39 C33        -8.6730   -0.9657   -1.5370 C.ar      1 <0>        -0.0512
     40 C34        -9.3503   -0.0741    0.5897 C.ar      1 <0>         0.0430
     41 C35        -9.6832   -0.6179   -0.6447 C.ar      1 <0>        -0.0427
     42 H1          2.5516    7.1842    0.4413 H         1 <0>         0.0271
     43 H2          1.9464    6.0373    1.7100 H         1 <0>         0.0271
     44 H3          0.6737    6.5046   -1.0718 H         1 <0>         0.0271
     45 H4          0.0644    5.3648    0.2029 H         1 <0>         0.0271
     46 H5          3.2834    3.4326    0.5563 H         1 <0>         0.0382
     47 H6          1.6617    3.6747    1.1807 H         1 <0>         0.0382
     48 H7          2.7260    4.7337   -2.3389 H         1 <0>         0.0383
     49 H8          3.1091    6.3573   -1.7985 H         1 <0>         0.0383
     50 H9          2.7809    1.1516    0.6595 H         1 <0>         0.0461
     51 H10         1.1096   -0.4058   -1.3637 H         1 <0>         0.0282
     52 H11         2.8069    0.0757   -1.5334 H         1 <0>         0.0282
     53 H12         6.0725    4.2824   -2.2675 H         1 <0>         0.2951
     54 H13         3.3961   -1.1520    0.4319 H         1 <0>         0.0314
     55 H14         1.7127   -1.7603    0.6421 H         1 <0>         0.0314
     56 H15        -0.7841    0.6359   -0.3616 H         1 <0>         0.0626
     57 H16         2.0176    1.1789    2.8468 H         1 <0>         0.0621
     58 H17         0.1884    0.9939    4.4904 H         1 <0>         0.0618
     59 H18         2.3826   -1.5846   -2.8316 H         1 <0>         0.0620
     60 H19        -2.1301    0.6200    3.7425 H         1 <0>         0.0623
     61 H20         3.8786   -5.8969   -0.9037 H         1 <0>         0.0621
     62 H21         2.9339   -3.4497   -4.2740 H         1 <0>         0.0618
     63 H22         5.4416   -4.8011    1.0298 H         1 <0>         0.0260
     64 H23         4.2249   -6.0883    1.2178 H         1 <0>         0.0260
     65 H24         4.6221   -5.0214    2.5662 H         1 <0>         0.0260
     66 H25         1.2412   -3.7433    1.4703 H         1 <0>         0.0260
     67 H26         1.6989   -5.4393    1.2609 H         1 <0>         0.0260
     68 H27         2.1118   -4.5648    2.7507 H         1 <0>         0.0260
     69 H28        -3.7672    0.6230    1.9176 H         1 <0>         0.0624
     70 H29         3.6862   -5.6103   -3.3184 H         1 <0>         0.0618
     71 H30         3.7394   -2.9324    2.6386 H         1 <0>         0.2106
     72 H31        -2.5985   -0.4067   -0.7455 H         1 <0>         0.0639
     73 H32        -4.1650   -1.1716   -2.3904 H         1 <0>         0.0639
     74 H33        -6.5050   -1.5398   -3.0504 H         1 <0>         0.0625
     75 H34        -7.7588    0.5474    1.8996 H         1 <0>         0.0653
     76 H35        -8.9442   -1.3906   -2.5011 H         1 <0>         0.0625
     77 H36       -10.7207   -0.7763   -0.9260 H         1 <0>         0.0632
@<TRIPOS>BOND
     1    1   40 1
     2    2   10 1
     3    2   13 1
     4    3   12 1
     5    3   53 1
     6    4   12 2
     7    5   23 1
     8    5   71 1
     9    6   33 ar
    10    6   35 ar
    11    7    8 1
    12    7    9 1
    13    7   10 1
    14    7   11 1
    15    8    9 1
    16    8   42 1
    17    8   43 1
    18    9   44 1
    19    9   45 1
    20   10   46 1
    21   10   47 1
    22   11   12 1
    23   11   48 1
    24   11   49 1
    25   13   14 1
    26   13   15 1
    27   13   50 1
    28   14   16 1
    29   14   51 1
    30   14   52 1
    31   15   17 ar
    32   15   18 ar
    33   16   19 1
    34   16   54 1
    35   16   55 1
    36   17   21 ar
    37   17   56 1
    38   18   22 ar
    39   18   57 1
    40   19   20 ar
    41   19   24 ar
    42   20   23 1
    43   20   26 ar
    44   21   25 ar
    45   21   28 1
    46   22   25 ar
    47   22   58 1
    48   23   29 1
    49   23   30 1
    50   24   27 ar
    51   24   59 1
    52   25   60 1
    53   26   31 ar
    54   26   61 1
    55   27   31 ar
    56   27   62 1
    57   28   32 2
    58   28   69 1
    59   29   63 1
    60   29   64 1
    61   29   65 1
    62   30   66 1
    63   30   67 1
    64   30   68 1
    65   31   70 1
    66   32   33 1
    67   32   72 1
    68   33   34 ar
    69   34   36 ar
    70   34   73 1
    71   35   37 ar
    72   35   38 ar
    73   36   37 ar
    74   36   74 1
    75   37   39 ar
    76   38   40 ar
    77   38   75 1
    78   39   41 ar
    79   39   76 1
    80   40   41 ar
    81   41   77 1
