@<TRIPOS>MOLECULE
DB00370
   39    42     0     0     0
SMALL
USER_CHARGES

@<TRIPOS>ATOM
      1 N1          0.3892   -1.0705    0.1385 N.pl3     1 <0>        -0.3054
      2 N2          3.0959   -0.1752    0.2013 N.3       1 <0>        -0.3018
      3 N3         -1.1455   -2.7081    0.9851 N.ar      1 <0>        -0.2400
      4 C1          0.6786    0.3093    0.5928 C.3       1 <0>         0.0630
      5 C2          2.0002    0.7665   -0.0759 C.3       1 <0>         0.0214
      6 C3          1.4785   -2.0311    0.3503 C.3       1 <0>         0.0269
      7 C4          2.7605   -1.5123   -0.3003 C.3       1 <0>         0.0145
      8 C5         -0.3725    1.4018    0.3892 C.ar      1 <0>        -0.0223
      9 C6         -0.9019   -1.6091    0.2190 C.ar      1 <0>         0.1253
     10 C7         -1.4001    1.3689   -0.5721 C.ar      1 <0>        -0.0380
     11 C8         -1.6349    0.1545   -1.4266 C.3       1 <0>         0.0012
     12 C9         -1.9217   -1.0419   -0.5603 C.ar      1 <0>        -0.0031
     13 C10         4.3443    0.2980   -0.3961 C.3       1 <0>        -0.0126
     14 C11        -0.2658    2.5487    1.2057 C.ar      1 <0>        -0.0565
     15 C12        -2.2706    2.4666   -0.7052 C.ar      1 <0>        -0.0579
     16 C13        -3.2069   -1.5939   -0.5076 C.ar      1 <0>        -0.0536
     17 C14        -1.1369    3.6293    1.0679 C.ar      1 <0>        -0.0614
     18 C15        -2.1379    3.5898    0.1076 C.ar      1 <0>        -0.0615
     19 C16        -3.4555   -2.6995    0.2908 C.ar      1 <0>        -0.0432
     20 C17        -2.3981   -3.2168    1.0096 C.ar      1 <0>         0.0297
     21 H1          0.8405    0.2409    1.6794 H         1 <0>         0.0563
     22 H2          1.8517    0.8765   -1.1601 H         1 <0>         0.0448
     23 H3          2.2818    1.7552    0.3084 H         1 <0>         0.0448
     24 H4          1.2421   -3.0007   -0.1068 H         1 <0>         0.0477
     25 H5          1.6320   -2.1955    1.4248 H         1 <0>         0.0477
     26 H6          3.5717   -2.2136   -0.0701 H         1 <0>         0.0442
     27 H7          2.6394   -1.4974   -1.3919 H         1 <0>         0.0442
     28 H8         -2.4680    0.3210   -2.1211 H         1 <0>         0.0363
     29 H9         -0.7617   -0.0306   -2.0655 H         1 <0>         0.0363
     30 H10         5.1680   -0.3834   -0.1557 H         1 <0>         0.0391
     31 H11         4.6190    1.2773    0.0116 H         1 <0>         0.0391
     32 H12         4.2758    0.3853   -1.4865 H         1 <0>         0.0391
     33 H13         0.5171    2.6090    1.9596 H         1 <0>         0.0621
     34 H14        -3.0710    2.4464   -1.4413 H         1 <0>         0.0620
     35 H15        -4.0169   -1.1649   -1.0913 H         1 <0>         0.0622
     36 H16        -1.0283    4.4999    1.7079 H         1 <0>         0.0618
     37 H17        -2.8196    4.4274   -0.0056 H         1 <0>         0.0618
     38 H18        -4.4428   -3.1427    0.3438 H         1 <0>         0.0633
     39 H19        -2.5297   -4.0852    1.6466 H         1 <0>         0.0830
@<TRIPOS>BOND
     1    1    4 1
     2    1    6 1
     3    1    9 1
     4    2    5 1
     5    2    7 1
     6    2   13 1
     7    3    9 ar
     8    3   20 ar
     9    4    5 1
    10    4    8 1
    11    4   21 1
    12    5   22 1
    13    5   23 1
    14    6    7 1
    15    6   24 1
    16    6   25 1
    17    7   26 1
    18    7   27 1
    19    8   10 ar
    20    8   14 ar
    21    9   12 ar
    22   10   11 1
    23   10   15 ar
    24   11   12 1
    25   11   28 1
    26   11   29 1
    27   12   16 ar
    28   13   30 1
    29   13   31 1
    30   13   32 1
    31   14   17 ar
    32   14   33 1
    33   15   18 ar
    34   15   34 1
    35   16   19 ar
    36   16   35 1
    37   17   18 ar
    38   17   36 1
    39   18   37 1
    40   19   20 ar
    41   19   38 1
    42   20   39 1
