@<TRIPOS>MOLECULE
DB00540
   41    43     0     0     0
SMALL
USER_CHARGES

@<TRIPOS>ATOM
      1 N1          4.3670    0.5117    0.1935 N.3       1 <0>        -0.3187
      2 C1         -2.8225   -0.6626    1.3470 C.3       1 <0>        -0.0231
      3 C2         -1.4856   -1.3246    1.6833 C.3       1 <0>        -0.0231
      4 C3         -2.8295    0.5932    0.4933 C.ar      1 <0>        -0.0393
      5 C4         -0.8499   -1.9539    0.4701 C.ar      1 <0>        -0.0393
      6 C5         -0.4820    0.3241   -0.4650 C.2       1 <0>        -0.0141
      7 C6         -1.7748    1.0463   -0.3299 C.ar      1 <0>        -0.0144
      8 C7         -0.3674   -1.1455   -0.5725 C.ar      1 <0>        -0.0144
      9 C8          0.6731    1.0141   -0.3928 C.2       1 <0>        -0.0745
     10 C9         -4.0340    1.3318    0.5162 C.ar      1 <0>        -0.0580
     11 C10        -0.7402   -3.3480    0.3675 C.ar      1 <0>        -0.0580
     12 C11        -1.9718    2.2112   -1.1044 C.ar      1 <0>        -0.0538
     13 C12         0.2101   -1.7417   -1.7041 C.ar      1 <0>        -0.0538
     14 C13         2.0241    0.3854   -0.5156 C.3       1 <0>        -0.0213
     15 C14        -4.1999    2.4884   -0.2427 C.ar      1 <0>        -0.0615
     16 C15        -0.1605   -3.9315   -0.7589 C.ar      1 <0>        -0.0615
     17 C16         3.0600    1.1490    0.3084 C.3       1 <0>        -0.0009
     18 C17        -3.1672    2.9275   -1.0562 C.ar      1 <0>        -0.0612
     19 C18         0.3130   -3.1295   -1.7939 C.ar      1 <0>        -0.0612
     20 C19         5.3563    1.2073    1.0043 C.3       1 <0>        -0.0158
     21 H1         -3.2919   -0.4083    2.3075 H         1 <0>         0.0316
     22 H2         -3.4768   -1.3978    0.8586 H         1 <0>         0.0316
     23 H3         -1.6622   -2.0974    2.4425 H         1 <0>         0.0316
     24 H4         -0.7914   -0.6098    2.1427 H         1 <0>         0.0316
     25 H5          0.6566    2.0964   -0.2804 H         1 <0>         0.0579
     26 H6         -4.8640    0.9969    1.1361 H         1 <0>         0.0620
     27 H7         -1.1087   -3.9900    1.1636 H         1 <0>         0.0620
     28 H8         -1.1928    2.5725   -1.7737 H         1 <0>         0.0624
     29 H9          0.5691   -1.1367   -2.5335 H         1 <0>         0.0624
     30 H10         2.3274    0.4026   -1.5700 H         1 <0>         0.0320
     31 H11         2.0489   -0.6520   -0.1670 H         1 <0>         0.0320
     32 H12         3.1180    2.1889   -0.0379 H         1 <0>         0.0427
     33 H13         2.7449    1.1646    1.3596 H         1 <0>         0.0427
     34 H14        -5.1364    3.0362   -0.2034 H         1 <0>         0.0618
     35 H15        -0.0816   -5.0125   -0.8299 H         1 <0>         0.0618
     36 H16        -3.2904    3.8212   -1.6608 H         1 <0>         0.0618
     37 H17         0.7586   -3.5849   -2.6736 H         1 <0>         0.0618
     38 H18         4.6647    0.5143   -0.7817 H         1 <0>         0.1216
     39 H19         5.4807    2.2467    0.6834 H         1 <0>         0.0388
     40 H20         6.3246    0.7069    0.9057 H         1 <0>         0.0388
     41 H21         5.0842    1.1895    2.0647 H         1 <0>         0.0388
@<TRIPOS>BOND
     1    1   17 1
     2    1   20 1
     3    1   38 1
     4    2    3 1
     5    2    4 1
     6    2   21 1
     7    2   22 1
     8    3    5 1
     9    3   23 1
    10    3   24 1
    11    4    7 ar
    12    4   10 ar
    13    5    8 ar
    14    5   11 ar
    15    6    7 1
    16    6    8 1
    17    6    9 2
    18    7   12 ar
    19    8   13 ar
    20    9   14 1
    21    9   25 1
    22   10   15 ar
    23   10   26 1
    24   11   16 ar
    25   11   27 1
    26   12   18 ar
    27   12   28 1
    28   13   19 ar
    29   13   29 1
    30   14   17 1
    31   14   30 1
    32   14   31 1
    33   15   18 ar
    34   15   34 1
    35   16   19 ar
    36   16   35 1
    37   17   32 1
    38   17   33 1
    39   18   36 1
    40   19   37 1
    41   20   39 1
    42   20   40 1
    43   20   41 1
