@<TRIPOS>MOLECULE
DB00843
   57    60     0     0     0
SMALL
USER_CHARGES

@<TRIPOS>ATOM
      1 O1         -2.4250   -1.7632   -2.5098 O.2       1 <0>        -0.2917
      2 O2         -6.5744    1.4847    1.1613 O.3       1 <0>        -0.4914
      3 O3         -7.2483   -0.0890   -1.0239 O.3       1 <0>        -0.4914
      4 N1          3.8018   -0.8824    0.6438 N.3       1 <0>        -0.2981
      5 C1          0.8868   -1.0924    0.4112 C.3       1 <0>        -0.0381
      6 C2         -0.3433   -1.6139   -0.3263 C.3       1 <0>        -0.0399
      7 C3         -1.2243   -0.4767   -0.8074 C.3       1 <0>         0.0264
      8 C4          1.7570   -2.2478    0.9172 C.3       1 <0>        -0.0373
      9 C5          1.7196   -0.1726   -0.4882 C.3       1 <0>        -0.0373
     10 C6          3.0415   -1.7326    1.5697 C.3       1 <0>        -0.0005
     11 C7          3.0056    0.2737    0.2104 C.3       1 <0>        -0.0005
     12 C8         -1.8102    0.3551    0.3568 C.3       1 <0>        -0.0170
     13 C9         -2.4342   -1.0000   -1.5609 C.2       1 <0>         0.1669
     14 C10        -3.2850    0.3448    0.1074 C.ar      1 <0>        -0.0325
     15 C11        -3.6445   -0.4377   -0.9827 C.ar      1 <0>         0.0246
     16 C12         5.0509   -0.4402    1.2633 C.3       1 <0>         0.0240
     17 C13        -4.2653    0.9968    0.8378 C.ar      1 <0>        -0.0124
     18 C14        -4.9550   -0.6068   -1.3897 C.ar      1 <0>        -0.0056
     19 C15         5.8944    0.3661    0.3118 C.ar      1 <0>        -0.0334
     20 C16        -5.6008    0.8472    0.4492 C.ar      1 <0>         0.1618
     21 C17        -5.9428    0.0506   -0.6565 C.ar      1 <0>         0.1622
     22 C18         6.8213   -0.2793   -0.4949 C.ar      1 <0>        -0.0573
     23 C19         5.7333    1.7435    0.2547 C.ar      1 <0>        -0.0573
     24 C20         7.6027    0.4678   -1.3763 C.ar      1 <0>        -0.0615
     25 C21         6.5146    2.4905   -0.6270 C.ar      1 <0>        -0.0615
     26 C22         7.4493    1.8527   -1.4424 C.ar      1 <0>        -0.0617
     27 C23        -6.9300    2.7982    0.7373 C.3       1 <0>         0.0790
     28 C24        -7.9739   -1.1668   -0.4369 C.3       1 <0>         0.0790
     29 H1          0.5737   -0.5159    1.2908 H         1 <0>         0.0302
     30 H2         -0.0337   -2.2272   -1.1828 H         1 <0>         0.0275
     31 H3         -0.9156   -2.2828    0.3301 H         1 <0>         0.0275
     32 H4         -0.7079    0.1825   -1.5140 H         1 <0>         0.0384
     33 H5          1.1964   -2.8477    1.6440 H         1 <0>         0.0280
     34 H6          2.0152   -2.9161    0.0852 H         1 <0>         0.0280
     35 H7          1.9692   -0.6851   -1.4264 H         1 <0>         0.0280
     36 H8          1.1647    0.7338   -0.7508 H         1 <0>         0.0280
     37 H9          2.7938   -1.1864    2.4894 H         1 <0>         0.0427
     38 H10         3.6468   -2.6002    1.8594 H         1 <0>         0.0427
     39 H11         2.7594    0.9286    1.0564 H         1 <0>         0.0427
     40 H12         3.5275    0.8690   -0.5429 H         1 <0>         0.0427
     41 H13        -1.6115   -0.0872    1.3383 H         1 <0>         0.0320
     42 H14        -1.4164    1.3767    0.3371 H         1 <0>         0.0320
     43 H15         4.8612    0.1457    2.1737 H         1 <0>         0.0476
     44 H16         5.6348   -1.3116    1.5895 H         1 <0>         0.0476
     45 H17        -4.0020    1.6086    1.6951 H         1 <0>         0.0658
     46 H18        -5.2074   -1.2238   -2.2450 H         1 <0>         0.0662
     47 H19         6.9477   -1.3575   -0.4532 H         1 <0>         0.0621
     48 H20         5.0212    2.2571    0.8947 H         1 <0>         0.0621
     49 H21         8.3305   -0.0287   -2.0115 H         1 <0>         0.0618
     50 H22         6.3978    3.5692   -0.6758 H         1 <0>         0.0618
     51 H23         8.0583    2.4344   -2.1284 H         1 <0>         0.0618
     52 H24        -7.7206    3.1686    1.3955 H         1 <0>         0.0660
     53 H25        -6.0698    3.4710    0.8107 H         1 <0>         0.0660
     54 H26        -7.3087    2.7831   -0.2897 H         1 <0>         0.0660
     55 H27        -8.9975   -1.1398   -0.8205 H         1 <0>         0.0660
     56 H28        -7.5231   -2.1262   -0.7097 H         1 <0>         0.0660
     57 H29        -8.0058   -1.0626    0.6523 H         1 <0>         0.0660
@<TRIPOS>BOND
     1    1   13 2
     2    2   20 1
     3    2   27 1
     4    3   21 1
     5    3   28 1
     6    4   10 1
     7    4   11 1
     8    4   16 1
     9    5    6 1
    10    5    8 1
    11    5    9 1
    12    5   29 1
    13    6    7 1
    14    6   30 1
    15    6   31 1
    16    7   12 1
    17    7   13 1
    18    7   32 1
    19    8   10 1
    20    8   33 1
    21    8   34 1
    22    9   11 1
    23    9   35 1
    24    9   36 1
    25   10   37 1
    26   10   38 1
    27   11   39 1
    28   11   40 1
    29   12   14 1
    30   12   41 1
    31   12   42 1
    32   13   15 1
    33   14   15 ar
    34   14   17 ar
    35   15   18 ar
    36   16   19 1
    37   16   43 1
    38   16   44 1
    39   17   20 ar
    40   17   45 1
    41   18   21 ar
    42   18   46 1
    43   19   22 ar
    44   19   23 ar
    45   20   21 ar
    46   22   24 ar
    47   22   47 1
    48   23   25 ar
    49   23   48 1
    50   24   26 ar
    51   24   49 1
    52   25   26 ar
    53   25   50 1
    54   26   51 1
    55   27   52 1
    56   27   53 1
    57   27   54 1
    58   28   55 1
    59   28   56 1
    60   28   57 1
