@<TRIPOS>MOLECULE
DB00623
   56    59     0     0     0
SMALL
USER_CHARGES

@<TRIPOS>ATOM
      1 S1          5.8331    1.0981   -0.4072 S.3       1 <0>        -0.0857
      2 F1          4.0854   -5.3668   -0.8672 F         1 <0>        -0.1659
      3 F2          2.9064   -4.8267    0.8712 F         1 <0>        -0.1659
      4 F3          2.1263   -4.4590   -1.1252 F         1 <0>        -0.1659
      5 O1         -8.0924   -0.2198   -1.2370 O.3       1 <0>        -0.3937
      6 N1         -1.9111   -0.3841    0.5888 N.3       1 <0>        -0.2999
      7 N2         -4.5554    0.3117   -0.3500 N.3       1 <0>        -0.2977
      8 N3          2.9603    0.4762    0.6053 N.pl3     1 <0>        -0.2983
      9 C1         -2.1340    0.7939   -0.2583 C.3       1 <0>         0.0117
     10 C2         -3.1053   -0.6711    1.3928 C.3       1 <0>         0.0117
     11 C3         -3.3614    0.5968   -1.1548 C.3       1 <0>         0.0118
     12 C4         -4.3330   -0.8669    0.4966 C.3       1 <0>         0.0118
     13 C5         -0.7421   -0.1938    1.4453 C.3       1 <0>         0.0004
     14 C6          0.5330    0.0420    0.6298 C.3       1 <0>        -0.0240
     15 C7         -5.7254    0.1230   -1.2054 C.3       1 <0>         0.0222
     16 C8          1.8026    0.2005    1.4659 C.3       1 <0>         0.0185
     17 C9         -6.9804   -0.0571   -0.3665 C.3       1 <0>         0.0569
     18 C10         3.6982   -0.6363    0.1277 C.ar      1 <0>         0.0484
     19 C11         3.2128    1.8292    0.2646 C.ar      1 <0>         0.0479
     20 C12         5.0033   -0.4785   -0.3791 C.ar      1 <0>         0.0341
     21 C13         4.4698    2.2314   -0.2284 C.ar      1 <0>         0.0341
     22 C14         3.1544   -1.9392    0.1026 C.ar      1 <0>        -0.0276
     23 C15         2.2164    2.8245    0.3673 C.ar      1 <0>        -0.0393
     24 C16         3.8773   -3.0339   -0.3794 C.ar      1 <0>         0.0566
     25 C17         5.7281   -1.5841   -0.8583 C.ar      1 <0>        -0.0457
     26 C18         4.7128    3.5733   -0.5716 C.ar      1 <0>        -0.0462
     27 C19         5.1668   -2.8567   -0.8571 C.ar      1 <0>        -0.0490
     28 C20         2.4617    4.1560    0.0199 C.ar      1 <0>        -0.0599
     29 C21         3.7121    4.5313   -0.4468 C.ar      1 <0>        -0.0606
     30 C22         3.2637   -4.3937   -0.3738 C.3       1 <0>         0.4175
     31 H1         -2.2560    1.7016    0.3478 H         1 <0>         0.0439
     32 H2         -1.3037    0.9611   -0.9498 H         1 <0>         0.0439
     33 H3         -2.9502   -1.5904    1.9707 H         1 <0>         0.0439
     34 H4         -3.2976    0.1379    2.1109 H         1 <0>         0.0439
     35 H5         -3.1701   -0.2134   -1.8717 H         1 <0>         0.0439
     36 H6         -3.5160    1.5154   -1.7340 H         1 <0>         0.0439
     37 H7         -4.2086   -1.7729   -0.1118 H         1 <0>         0.0439
     38 H8         -5.1684   -1.0377    1.1814 H         1 <0>         0.0439
     39 H9         -0.8924    0.6464    2.1358 H         1 <0>         0.0427
     40 H10        -0.5919   -1.0917    2.0578 H         1 <0>         0.0427
     41 H11         0.6413   -0.7872   -0.0784 H         1 <0>         0.0293
     42 H12         0.4221    0.9206   -0.0039 H         1 <0>         0.0293
     43 H13        -5.8675    0.9999   -1.8506 H         1 <0>         0.0449
     44 H14        -5.6026   -0.7331   -1.8824 H         1 <0>         0.0449
     45 H15         1.6703    0.9995    2.2080 H         1 <0>         0.0468
     46 H16         1.9666   -0.6896    2.0873 H         1 <0>         0.0468
     47 H17        -6.9566   -0.9547    0.2550 H         1 <0>         0.0570
     48 H18        -7.1617    0.8160    0.2692 H         1 <0>         0.0570
     49 H19         2.1560   -2.1491    0.4729 H         1 <0>         0.0642
     50 H20         1.2240    2.6240    0.7553 H         1 <0>         0.0636
     51 H21         6.7408   -1.4645   -1.2386 H         1 <0>         0.0629
     52 H22         5.6872    3.8870   -0.9407 H         1 <0>         0.0629
     53 H23         5.7499   -3.6918   -1.2340 H         1 <0>         0.0623
     54 H24        -8.8823   -0.3154   -0.6780 H         1 <0>         0.2095
     55 H25         1.6746    4.8972    0.1240 H         1 <0>         0.0618
     56 H26         3.9091    5.5650   -0.7140 H         1 <0>         0.0618
@<TRIPOS>BOND
     1    1   20 1
     2    1   21 1
     3    2   30 1
     4    3   30 1
     5    4   30 1
     6    5   17 1
     7    5   54 1
     8    6    9 1
     9    6   10 1
    10    6   13 1
    11    7   11 1
    12    7   12 1
    13    7   15 1
    14    8   16 1
    15    8   18 1
    16    8   19 1
    17    9   11 1
    18    9   31 1
    19    9   32 1
    20   10   12 1
    21   10   33 1
    22   10   34 1
    23   11   35 1
    24   11   36 1
    25   12   37 1
    26   12   38 1
    27   13   14 1
    28   13   39 1
    29   13   40 1
    30   14   16 1
    31   14   41 1
    32   14   42 1
    33   15   17 1
    34   15   43 1
    35   15   44 1
    36   16   45 1
    37   16   46 1
    38   17   47 1
    39   17   48 1
    40   18   20 ar
    41   18   22 ar
    42   19   21 ar
    43   19   23 ar
    44   20   25 ar
    45   21   26 ar
    46   22   24 ar
    47   22   49 1
    48   23   28 ar
    49   23   50 1
    50   24   27 ar
    51   24   30 1
    52   25   27 ar
    53   25   51 1
    54   26   29 ar
    55   26   52 1
    56   27   53 1
    57   28   29 ar
    58   28   55 1
    59   29   56 1
