@<TRIPOS>MOLECULE
DB00279
   35    36     0     0     0
SMALL
USER_CHARGES

@<TRIPOS>ATOM
      1 I1          1.0694    1.3034    3.1896 I         1 <0>        -0.0400
      2 I2          1.1911    2.1168   -2.8578 I         1 <0>        -0.0400
      3 I3          2.7083   -3.3826   -0.4965 I         1 <0>        -0.0399
      4 O1          2.1793    1.9362    0.2171 O.3       1 <0>        -0.4539
      5 O2         -3.5641   -1.2780    2.0412 O.co2     1 <0>        -0.5442
      6 O3         -2.2692   -2.5082    0.6137 O.co2     1 <0>        -0.5442
      7 O4          5.7571   -2.2296   -0.2797 O.3       1 <0>        -0.5057
      8 N1         -5.0803   -0.9052   -0.4618 N.4       1 <0>         0.2251
      9 C1         -3.3340    0.7441   -0.0537 C.3       1 <0>         0.0209
     10 C2         -3.6047   -0.7506   -0.2611 C.3       1 <0>         0.0200
     11 C3         -1.8595    1.0635    0.0187 C.ar      1 <0>        -0.0395
     12 C4         -1.1733    1.3676   -1.1455 C.ar      1 <0>        -0.0416
     13 C5         -1.2210    1.0454    1.2482 C.ar      1 <0>        -0.0416
     14 C6         -3.0906   -1.5965    0.9135 C.2       1 <0>         0.0897
     15 C7          0.8459    1.6476    0.1516 C.ar      1 <0>         0.1545
     16 C8          0.1410    1.3392    1.3151 C.ar      1 <0>         0.0569
     17 C9          0.1887    1.6618   -1.0788 C.ar      1 <0>         0.0569
     18 C10         3.0676    0.8843    0.0925 C.ar      1 <0>         0.1297
     19 C11         2.5770   -0.3970   -0.0924 C.ar      1 <0>        -0.0027
     20 C12         4.4272    1.1372    0.1538 C.ar      1 <0>        -0.0158
     21 C13         3.4739   -1.4579   -0.2198 C.ar      1 <0>         0.0582
     22 C14         5.3238    0.0766    0.0263 C.ar      1 <0>        -0.0157
     23 C15         4.8473   -1.2209   -0.1608 C.ar      1 <0>         0.1301
     24 H1         -3.8269    1.1097    0.8576 H         1 <0>         0.0372
     25 H2         -3.7811    1.3246   -0.8726 H         1 <0>         0.0372
     26 H3         -3.1470   -1.0965   -1.1954 H         1 <0>         0.0918
     27 H4         -5.3294   -1.8888   -0.6311 H         1 <0>         0.2001
     28 H5         -5.4115   -0.3634   -1.2712 H         1 <0>         0.2001
     29 H6         -5.6104   -0.5908    0.3620 H         1 <0>         0.2001
     30 H7         -1.6976    1.3722   -2.0978 H         1 <0>         0.0632
     31 H8         -1.7805    0.8165    2.1511 H         1 <0>         0.0632
     32 H9          1.5199   -0.6329   -0.1451 H         1 <0>         0.0666
     33 H10         4.7997    2.1468    0.2988 H         1 <0>         0.0655
     34 H11         6.3923    0.2689    0.0736 H         1 <0>         0.0655
     35 H12         5.2714   -3.0634   -0.4032 H         1 <0>         0.2922
@<TRIPOS>BOND
     1    1   16 1
     2    2   17 1
     3    3   21 1
     4    4   15 1
     5    4   18 1
     6    5   14 2
     7    6   14 1
     8    7   23 1
     9    7   35 1
    10    8   10 1
    11    8   27 1
    12    8   28 1
    13    8   29 1
    14    9   10 1
    15    9   11 1
    16    9   24 1
    17    9   25 1
    18   10   14 1
    19   10   26 1
    20   11   12 ar
    21   11   13 ar
    22   12   17 ar
    23   12   30 1
    24   13   16 ar
    25   13   31 1
    26   15   16 ar
    27   15   17 ar
    28   18   19 ar
    29   18   20 ar
    30   19   21 ar
    31   19   32 1
    32   20   22 ar
    33   20   33 1
    34   21   23 ar
    35   22   23 ar
    36   22   34 1
