@<TRIPOS>MOLECULE
DB00276
   47    50     0     0     0
SMALL
USER_CHARGES

@<TRIPOS>ATOM
      1 S1          5.6325   -0.2637    0.6750 S.o2      1 <0>         0.0403
      2 O1          1.3729   -0.7944   -2.8177 O.3       1 <0>        -0.4932
      3 O2          6.9083   -0.8703    1.0065 O.2       1 <0>        -0.1555
      4 O3          5.4598    0.4538   -0.5725 O.2       1 <0>        -0.1555
      5 N1         -0.7589   -0.2824   -1.0537 N.pl3     1 <0>        -0.3106
      6 N2         -4.3590    0.5653    0.9184 N.ar      1 <0>        -0.2466
      7 N3          4.3975   -1.4465    0.8809 N.pl3     1 <0>        -0.2208
      8 C1         -1.9798    0.0051   -0.3849 C.ar      1 <0>         0.0500
      9 C2         -2.8465   -1.0386   -0.0450 C.ar      1 <0>         0.0221
     10 C3         -2.3039    1.3291   -0.0723 C.ar      1 <0>         0.0221
     11 C4         -4.0420   -0.7085    0.6151 C.ar      1 <0>         0.0735
     12 C5         -3.5207    1.5668    0.5889 C.ar      1 <0>         0.0735
     13 C6          0.5283   -0.5726   -0.5829 C.ar      1 <0>         0.0737
     14 C7         -2.5460   -2.3785   -0.3468 C.ar      1 <0>        -0.0508
     15 C8         -1.4516    2.3974   -0.4018 C.ar      1 <0>        -0.0508
     16 C9          1.5814   -0.8252   -1.4710 C.ar      1 <0>         0.1429
     17 C10         3.0912   -1.1509    0.3868 C.ar      1 <0>         0.0512
     18 C11         0.7717   -0.6125    0.7955 C.ar      1 <0>        -0.0352
     19 C12        -4.9091   -1.7431    0.9561 C.ar      1 <0>        -0.0357
     20 C13        -3.8489    2.8829    0.9028 C.ar      1 <0>        -0.0357
     21 C14         2.8578   -1.1131   -0.9878 C.ar      1 <0>         0.0043
     22 C15         2.0480   -0.9005    1.2785 C.ar      1 <0>        -0.0374
     23 C16        -3.4297   -3.3944    0.0050 C.ar      1 <0>        -0.0610
     24 C17        -1.8031    3.7042   -0.0768 C.ar      1 <0>        -0.0610
     25 C18        -4.6137   -3.0756    0.6578 C.ar      1 <0>        -0.0597
     26 C19        -3.0043    3.9470    0.5769 C.ar      1 <0>        -0.0597
     27 C20         5.2283    0.8472    2.0042 C.3       1 <0>         0.0736
     28 C21         1.5577    0.4585   -3.4728 C.3       1 <0>         0.0789
     29 H1         -0.8604   -0.3077   -2.0640 H         1 <0>         0.1523
     30 H2         -1.6314   -2.6623   -0.8608 H         1 <0>         0.0625
     31 H3         -0.5071    2.2435   -0.9169 H         1 <0>         0.0625
     32 H4         -0.0202   -0.4215    1.5152 H         1 <0>         0.0638
     33 H5         -5.8433   -1.5190    1.4680 H         1 <0>         0.0639
     34 H6         -4.7849    3.0993    1.4150 H         1 <0>         0.0639
     35 H7          3.6622   -1.3204   -1.6896 H         1 <0>         0.0674
     36 H8          2.2189   -0.9261    2.3516 H         1 <0>         0.0637
     37 H9         -3.1960   -4.4282   -0.2300 H         1 <0>         0.0618
     38 H10        -1.1438    4.5276   -0.3333 H         1 <0>         0.0618
     39 H11        -5.3104   -3.8606    0.9365 H         1 <0>         0.0618
     40 H12        -3.2884    4.9631    0.8348 H         1 <0>         0.0618
     41 H13         4.4003   -1.9261    1.7912 H         1 <0>         0.1733
     42 H14         5.2340    0.2938    2.9451 H         1 <0>         0.0482
     43 H15         5.9910    1.6287    2.0317 H         1 <0>         0.0482
     44 H16         4.2514    1.2956    1.8162 H         1 <0>         0.0482
     45 H17         2.5975    0.7880   -3.3801 H         1 <0>         0.0660
     46 H18         0.8862    1.2178   -3.0597 H         1 <0>         0.0660
     47 H19         1.3260    0.3279   -4.5333 H         1 <0>         0.0660
@<TRIPOS>BOND
     1    1    3 2
     2    1    4 2
     3    1    7 1
     4    1   27 1
     5    2   16 1
     6    2   28 1
     7    5    8 1
     8    5   13 1
     9    5   29 1
    10    6   11 ar
    11    6   12 ar
    12    7   17 1
    13    7   41 1
    14    8    9 ar
    15    8   10 ar
    16    9   11 ar
    17    9   14 ar
    18   10   12 ar
    19   10   15 ar
    20   11   19 ar
    21   12   20 ar
    22   13   16 ar
    23   13   18 ar
    24   14   23 ar
    25   14   30 1
    26   15   24 ar
    27   15   31 1
    28   16   21 ar
    29   17   21 ar
    30   17   22 ar
    31   18   22 ar
    32   18   32 1
    33   19   25 ar
    34   19   33 1
    35   20   26 ar
    36   20   34 1
    37   21   35 1
    38   22   36 1
    39   23   25 ar
    40   23   37 1
    41   24   26 ar
    42   24   38 1
    43   25   39 1
    44   26   40 1
    45   27   42 1
    46   27   43 1
    47   27   44 1
    48   28   45 1
    49   28   46 1
    50   28   47 1
