@<TRIPOS>MOLECULE
DB00278
   71    73     0     0     0
SMALL
USER_CHARGES

@<TRIPOS>ATOM
      1 S1         -1.0332   -2.3981    1.7225 S.o2      1 <0>         0.0608
      2 O1          1.8984   -0.7429    2.8819 O.2       1 <0>        -0.2738
      3 O2          5.1298   -3.4598    1.3997 O.3       1 <0>        -0.4793
      4 O3          3.0912   -3.4171    0.3808 O.2       1 <0>        -0.2489
      5 O4         -2.0842   -2.7466    2.6593 O.2       1 <0>        -0.1530
      6 O5          0.1360   -3.2460    1.5891 O.2       1 <0>        -0.1530
      7 N1          2.8118   -0.7818    0.7412 N.am      1 <0>        -0.2867
      8 N2         -0.5278   -0.7994    2.0126 N.pl3     1 <0>        -0.1780
      9 N3         -3.6303   -0.9970    0.9713 N.pl3     1 <0>        -0.3418
     10 N4         -0.1747    3.9570   -0.1915 N.2       1 <0>        -0.1138
     11 N5          0.7688    5.9193   -0.9858 N.pl3     1 <0>        -0.2893
     12 N6         -1.0746    6.1199    0.3395 N.pl3     1 <0>        -0.2893
     13 C1          5.1814   -0.5866   -0.9574 C.3       1 <0>        -0.0403
     14 C2          5.3030   -0.7107    0.5676 C.3       1 <0>        -0.0213
     15 C3          4.0765   -1.3653    1.2053 C.3       1 <0>         0.1230
     16 C4          3.8724    0.1238   -1.3144 C.3       1 <0>        -0.0345
     17 C5          2.6708   -0.5967   -0.7115 C.3       1 <0>         0.0158
     18 C6          0.4439   -0.1558    1.1072 C.3       1 <0>         0.1051
     19 C7          1.7775   -0.5870    1.6638 C.2       1 <0>         0.2349
     20 C8          6.3805    0.1602   -1.5380 C.3       1 <0>        -0.0623
     21 C9          4.0153   -2.8425    0.9369 C.2       1 <0>         0.3255
     22 C10         0.2813    1.3556    1.1536 C.3       1 <0>        -0.0245
     23 C11        -5.6411   -0.6313   -0.4106 C.3       1 <0>        -0.0243
     24 C12        -4.7877   -0.8096   -1.6771 C.3       1 <0>        -0.0219
     25 C13        -2.9604   -1.5746   -0.1001 C.ar      1 <0>         0.0570
     26 C14        -3.4913   -1.5339   -1.4043 C.ar      1 <0>        -0.0243
     27 C15        -4.7655   -0.1239    0.7401 C.3       1 <0>         0.0120
     28 C16        -1.7577   -2.2629    0.1158 C.ar      1 <0>         0.1262
     29 C17        -1.0645    1.8114    0.5761 C.3       1 <0>        -0.0167
     30 C18        -6.3860   -1.9181   -0.0374 C.3       1 <0>        -0.0607
     31 C19        -2.7962   -2.1326   -2.4649 C.ar      1 <0>        -0.0567
     32 C20        -1.0775   -2.8671   -0.9426 C.ar      1 <0>        -0.0335
     33 C21        -1.2276    3.3274    0.6072 C.3       1 <0>         0.1047
     34 C22        -1.5942   -2.7982   -2.2329 C.ar      1 <0>        -0.0595
     35 C23        -0.1865    5.2520   -0.2558 C.2       1 <0>         0.3765
     36 H1          5.1669   -1.5930   -1.3957 H         1 <0>         0.0299
     37 H2          5.4134    0.2957    0.9945 H         1 <0>         0.0291
     38 H3          6.2193   -1.2560    0.8232 H         1 <0>         0.0291
     39 H4          4.1423   -1.2522    2.2941 H         1 <0>         0.0616
     40 H5          3.8983    1.1564   -0.9422 H         1 <0>         0.0283
     41 H6          3.7562    0.1778   -2.4032 H         1 <0>         0.0283
     42 H7          2.5323   -1.5775   -1.1773 H         1 <0>         0.0465
     43 H8          1.7956    0.0029   -0.9625 H         1 <0>         0.0465
     44 H9          0.2684   -0.5309    0.1011 H         1 <0>         0.0573
     45 H10         6.4486    1.1781   -1.1395 H         1 <0>         0.0232
     46 H11         7.3139   -0.3601   -1.2994 H         1 <0>         0.0232
     47 H12         6.3038    0.2283   -2.6283 H         1 <0>         0.0232
     48 H13         0.3724    1.7171    2.1866 H         1 <0>         0.0286
     49 H14         1.1027    1.8198    0.5944 H         1 <0>         0.0286
     50 H15        -6.4064    0.1271   -0.6212 H         1 <0>         0.0316
     51 H16        -1.0228   -0.2119    2.6939 H         1 <0>         0.1489
     52 H17        -5.3655   -1.3413   -2.4429 H         1 <0>         0.0317
     53 H18        -4.5362    0.1789   -2.0826 H         1 <0>         0.0317
     54 H19        -5.3514   -0.0405    1.6621 H         1 <0>         0.0464
     55 H20        -4.3964    0.8820    0.5050 H         1 <0>         0.0464
     56 H21        -1.1546    1.4559   -0.4578 H         1 <0>         0.0297
     57 H22        -1.8877    1.3680    1.1456 H         1 <0>         0.0297
     58 H23        -3.1953   -0.9767    1.8846 H         1 <0>         0.1461
     59 H24        -5.7047   -2.7480    0.1751 H         1 <0>         0.0233
     60 H25        -7.0074   -1.7582    0.8502 H         1 <0>         0.0233
     61 H26        -7.0467   -2.2292   -0.8537 H         1 <0>         0.0233
     62 H27        -3.1919   -2.0860   -3.4763 H         1 <0>         0.0621
     63 H28        -0.1390   -3.3945   -0.8014 H         1 <0>         0.0638
     64 H29        -2.2148    3.5783    0.2010 H         1 <0>         0.0693
     65 H30        -1.1804    3.6721    1.6474 H         1 <0>         0.0693
     66 H31        -1.0628   -3.2631   -3.0579 H         1 <0>         0.0618
     67 H32         5.1090   -4.4263    1.2338 H         1 <0>         0.2951
     68 H33         0.7776    6.9316   -1.0482 H         1 <0>         0.2546
     69 H34         1.4947    5.4151   -1.4830 H         1 <0>         0.2546
     70 H35        -0.9856    7.1230    0.2186 H         1 <0>         0.2546
     71 H36        -1.8440    5.7963    0.9147 H         1 <0>         0.2546
@<TRIPOS>BOND
     1    1    5 2
     2    1    6 2
     3    1    8 1
     4    1   28 1
     5    2   19 2
     6    3   21 1
     7    3   67 1
     8    4   21 2
     9    7   15 1
    10    7   17 1
    11    7   19 am
    12    8   18 1
    13    8   51 1
    14    9   25 1
    15    9   27 1
    16    9   58 1
    17   10   33 1
    18   10   35 2
    19   11   35 1
    20   11   68 1
    21   11   69 1
    22   12   35 1
    23   12   70 1
    24   12   71 1
    25   13   14 1
    26   13   16 1
    27   13   20 1
    28   13   36 1
    29   14   15 1
    30   14   37 1
    31   14   38 1
    32   15   21 1
    33   15   39 1
    34   16   17 1
    35   16   40 1
    36   16   41 1
    37   17   42 1
    38   17   43 1
    39   18   19 1
    40   18   22 1
    41   18   44 1
    42   20   45 1
    43   20   46 1
    44   20   47 1
    45   22   29 1
    46   22   48 1
    47   22   49 1
    48   23   24 1
    49   23   27 1
    50   23   30 1
    51   23   50 1
    52   24   26 1
    53   24   52 1
    54   24   53 1
    55   25   26 ar
    56   25   28 ar
    57   26   31 ar
    58   27   54 1
    59   27   55 1
    60   28   32 ar
    61   29   33 1
    62   29   56 1
    63   29   57 1
    64   30   59 1
    65   30   60 1
    66   30   61 1
    67   31   34 ar
    68   31   62 1
    69   32   34 ar
    70   32   63 1
    71   33   64 1
    72   33   65 1
    73   34   66 1
