@<TRIPOS>MOLECULE
DB00737
   55    58     0     0     0
SMALL
USER_CHARGES

@<TRIPOS>ATOM
      1 Cl1        -6.7983    3.6917   -0.1096 Cl        1 <0>        -0.0835
      2 N1         -1.0500    0.2558   -0.1865 N.3       1 <0>        -0.2891
      3 N2          1.6684    1.2255   -0.3567 N.3       1 <0>        -0.2957
      4 C1          0.0902   -0.6115    0.1343 C.3       1 <0>         0.0126
      5 C2         -0.7221    1.6584    0.0968 C.3       1 <0>         0.0126
      6 C3          1.3400   -0.1773   -0.6391 C.3       1 <0>         0.0121
      7 C4          0.5281    2.0934   -0.6755 C.3       1 <0>         0.0121
      8 C5         -2.2412   -0.1583    0.5520 C.3       1 <0>         0.0610
      9 C6          2.8587    1.6392   -1.0972 C.3       1 <0>         0.0241
     10 C7         -3.3958    0.8183    0.3839 C.ar      1 <0>        -0.0258
     11 C8         -2.6559   -1.5865    0.2304 C.ar      1 <0>        -0.0259
     12 C9          4.0615    0.8095   -0.7343 C.ar      1 <0>        -0.0331
     13 C10        -3.5201    1.8648    1.2749 C.ar      1 <0>        -0.0554
     14 C11        -4.2851    0.6279   -0.6543 C.ar      1 <0>        -0.0554
     15 C12        -3.2939   -2.3309    1.2018 C.ar      1 <0>        -0.0568
     16 C13        -2.3820   -2.0948   -1.0231 C.ar      1 <0>        -0.0568
     17 C14         4.3269    0.5371    0.6005 C.ar      1 <0>        -0.0544
     18 C15         4.8887    0.3295   -1.7401 C.ar      1 <0>        -0.0573
     19 C16        -4.5793    2.7594    1.1213 C.ar      1 <0>        -0.0431
     20 C17        -5.3443    1.5225   -0.8080 C.ar      1 <0>        -0.0431
     21 C18        -3.6743   -3.6401    0.9071 C.ar      1 <0>        -0.0614
     22 C19        -2.7624   -3.4041   -1.3178 C.ar      1 <0>        -0.0614
     23 C20         5.4420   -0.2308    0.9361 C.ar      1 <0>        -0.0501
     24 C21        -5.4913    2.5884    0.0798 C.ar      1 <0>         0.0410
     25 C22        -3.4087   -4.1767   -0.3526 C.ar      1 <0>        -0.0617
     26 C23         6.0037   -0.4387   -1.4044 C.ar      1 <0>        -0.0612
     27 C24         6.2804   -0.7187   -0.0663 C.ar      1 <0>        -0.0588
     28 C25         5.7386   -0.5297    2.3671 C.3       1 <0>        -0.0397
     29 H1         -0.0759   -1.6631   -0.1139 H         1 <0>         0.0439
     30 H2          0.3082   -0.5778    1.2114 H         1 <0>         0.0439
     31 H3         -0.5595    1.8249    1.1702 H         1 <0>         0.0439
     32 H4         -1.5060    2.3385   -0.2502 H         1 <0>         0.0439
     33 H5          1.1743   -0.3303   -1.7149 H         1 <0>         0.0439
     34 H6          2.1444   -0.8571   -0.3389 H         1 <0>         0.0439
     35 H7          0.7625    3.1286   -0.3988 H         1 <0>         0.0439
     36 H8          0.3178    2.0831   -1.7539 H         1 <0>         0.0439
     37 H9         -1.9830   -0.1592    1.6240 H         1 <0>         0.0562
     38 H10         3.1020    2.6838   -0.8629 H         1 <0>         0.0476
     39 H11         2.6734    1.5902   -2.1787 H         1 <0>         0.0476
     40 H12        -2.8268    2.0028    2.0990 H         1 <0>         0.0621
     41 H13        -4.1962   -0.1704   -1.3812 H         1 <0>         0.0621
     42 H14        -3.5065   -1.9212    2.1847 H         1 <0>         0.0621
     43 H15        -1.9073   -1.5135   -1.8076 H         1 <0>         0.0621
     44 H16         3.6867    0.9236    1.3896 H         1 <0>         0.0623
     45 H17         4.6850    0.5414   -2.7858 H         1 <0>         0.0621
     46 H18        -4.6831    3.5834    1.8226 H         1 <0>         0.0632
     47 H19        -6.0446    1.3803   -1.6272 H         1 <0>         0.0632
     48 H20        -4.1782   -4.2415    1.6582 H         1 <0>         0.0618
     49 H21        -2.5619   -3.8200   -2.3008 H         1 <0>         0.0618
     50 H22        -3.7065   -5.1955   -0.5828 H         1 <0>         0.0618
     51 H23         6.6562   -0.8187   -2.1850 H         1 <0>         0.0618
     52 H24         7.1512   -1.3197    0.1818 H         1 <0>         0.0620
     53 H25         5.1775   -1.4121    2.6904 H         1 <0>         0.0278
     54 H26         6.8064   -0.7194    2.5214 H         1 <0>         0.0278
     55 H27         5.4676    0.3157    3.0087 H         1 <0>         0.0278
@<TRIPOS>BOND
     1    1   24 1
     2    2    4 1
     3    2    5 1
     4    2    8 1
     5    3    6 1
     6    3    7 1
     7    3    9 1
     8    4    6 1
     9    4   29 1
    10    4   30 1
    11    5    7 1
    12    5   31 1
    13    5   32 1
    14    6   33 1
    15    6   34 1
    16    7   35 1
    17    7   36 1
    18    8   10 1
    19    8   11 1
    20    8   37 1
    21    9   12 1
    22    9   38 1
    23    9   39 1
    24   10   13 ar
    25   10   14 ar
    26   11   15 ar
    27   11   16 ar
    28   12   17 ar
    29   12   18 ar
    30   13   19 ar
    31   13   40 1
    32   14   20 ar
    33   14   41 1
    34   15   21 ar
    35   15   42 1
    36   16   22 ar
    37   16   43 1
    38   17   23 ar
    39   17   44 1
    40   18   26 ar
    41   18   45 1
    42   19   24 ar
    43   19   46 1
    44   20   24 ar
    45   20   47 1
    46   21   25 ar
    47   21   48 1
    48   22   25 ar
    49   22   49 1
    50   23   27 ar
    51   23   28 1
    52   25   50 1
    53   26   27 ar
    54   26   51 1
    55   27   52 1
    56   28   53 1
    57   28   54 1
    58   28   55 1
