@<TRIPOS>MOLECULE
DB00383
   53    55     0     0     0
SMALL
USER_CHARGES

@<TRIPOS>ATOM
      1 O1          2.7530   -0.7728    1.8756 O.3       1 <0>        -0.3730
      2 O2         -0.7087   -0.2938    1.0580 O.3       1 <0>        -0.4500
      3 O3          0.4501   -0.1197    3.0424 O.2       1 <0>        -0.2472
      4 N1         -3.3862    1.1824    0.0955 N.pl3     1 <0>        -0.2243
      5 N2         -3.5932   -1.1755    0.5199 N.2       1 <0>        -0.0841
      6 C1          1.9421    0.5315    0.0625 C.3       1 <0>         0.0026
      7 C2          3.2300    0.2861   -0.7349 C.3       1 <0>        -0.0467
      8 C3          2.0396    1.8320    0.8716 C.3       1 <0>        -0.0467
      9 C4          1.6413   -0.6528    0.9794 C.3       1 <0>         0.1902
     10 C5          3.5812    1.4798   -1.6200 C.3       1 <0>        -0.0527
     11 C6          2.3924    3.0231   -0.0164 C.3       1 <0>        -0.0527
     12 C7          3.6685    2.7720   -0.8139 C.3       1 <0>        -0.0530
     13 C8          1.4773   -2.0116    0.3044 C.ar      1 <0>        -0.0051
     14 C9          0.4157   -0.3215    1.8346 C.2       1 <0>         0.3446
     15 C10         1.9253   -3.1368    0.9617 C.ar      1 <0>        -0.0553
     16 C11         0.8870   -2.0670   -0.9395 C.ar      1 <0>        -0.0553
     17 C12        -1.9283   -0.0016    1.7469 C.3       1 <0>         0.1941
     18 C13         1.7758   -4.3787    0.3444 C.ar      1 <0>        -0.0614
     19 C14         0.7373   -3.3089   -1.5567 C.ar      1 <0>        -0.0614
     20 C15        -3.0450   -0.0180    0.7197 C.2       1 <0>         0.3205
     21 C16        -4.4750    1.2106   -0.8765 C.3       1 <0>         0.0838
     22 C17        -5.4338    0.0665   -0.5824 C.3       1 <0>         0.0252
     23 C18         1.1817   -4.4648   -0.9148 C.ar      1 <0>        -0.0617
     24 C19        -4.6578   -1.2392   -0.4877 C.3       1 <0>         0.1353
     25 C20        -2.6404    2.4199    0.2739 C.3       1 <0>         0.0694
     26 H1          1.1223    0.6796   -0.6527 H         1 <0>         0.0337
     27 H2          3.1491   -0.5976   -1.3753 H         1 <0>         0.0269
     28 H3          4.0801    0.1131   -0.0641 H         1 <0>         0.0269
     29 H4          1.0916    2.0638    1.3694 H         1 <0>         0.0269
     30 H5          2.8009    1.7454    1.6566 H         1 <0>         0.0269
     31 H6          4.5363    1.2965   -2.1252 H         1 <0>         0.0265
     32 H7          2.8214    1.5885   -2.4038 H         1 <0>         0.0265
     33 H8          2.5151    3.9200    0.6012 H         1 <0>         0.0265
     34 H9          1.5634    3.2220   -0.7068 H         1 <0>         0.0265
     35 H10         4.5226    2.7170   -0.1277 H         1 <0>         0.0265
     36 H11         3.8541    3.6156   -1.4881 H         1 <0>         0.0265
     37 H12         3.4857   -1.2349    1.4348 H         1 <0>         0.2113
     38 H13         2.3666   -3.1113    1.9528 H         1 <0>         0.0621
     39 H14         0.5130   -1.1922   -1.4585 H         1 <0>         0.0621
     40 H15        -2.1177   -0.7835    2.4922 H         1 <0>         0.0826
     41 H16        -1.8621    0.9629    2.2573 H         1 <0>         0.0826
     42 H17         2.1156   -5.2798    0.8467 H         1 <0>         0.0618
     43 H18         0.2703   -3.3768   -2.5349 H         1 <0>         0.0618
     44 H19        -5.0190    2.1607   -0.8256 H         1 <0>         0.0727
     45 H20        -4.0607    1.1124   -1.8866 H         1 <0>         0.0727
     46 H21        -5.9520    0.2541    0.3666 H         1 <0>         0.0341
     47 H22        -6.1966    0.0005   -1.3655 H         1 <0>         0.0341
     48 H23         1.0627   -5.4320   -1.3941 H         1 <0>         0.0618
     49 H24        -4.2199   -1.5036   -1.4572 H         1 <0>         0.0792
     50 H25        -5.3465   -2.0455   -0.2136 H         1 <0>         0.0792
     51 H26        -2.9452    3.1819   -0.4520 H         1 <0>         0.0689
     52 H27        -2.8137    2.8283    1.2743 H         1 <0>         0.0689
     53 H28        -1.5676    2.2537    0.1323 H         1 <0>         0.0689
@<TRIPOS>BOND
     1    1    9 1
     2    1   37 1
     3    2   14 1
     4    2   17 1
     5    3   14 2
     6    4   20 1
     7    4   21 1
     8    4   25 1
     9    5   20 2
    10    5   24 1
    11    6    7 1
    12    6    8 1
    13    6    9 1
    14    6   26 1
    15    7   10 1
    16    7   27 1
    17    7   28 1
    18    8   11 1
    19    8   29 1
    20    8   30 1
    21    9   13 1
    22    9   14 1
    23   10   12 1
    24   10   31 1
    25   10   32 1
    26   11   12 1
    27   11   33 1
    28   11   34 1
    29   12   35 1
    30   12   36 1
    31   13   15 ar
    32   13   16 ar
    33   15   18 ar
    34   15   38 1
    35   16   19 ar
    36   16   39 1
    37   17   20 1
    38   17   40 1
    39   17   41 1
    40   18   23 ar
    41   18   42 1
    42   19   23 ar
    43   19   43 1
    44   21   22 1
    45   21   44 1
    46   21   45 1
    47   22   24 1
    48   22   46 1
    49   22   47 1
    50   23   48 1
    51   24   49 1
    52   24   50 1
    53   25   51 1
    54   25   52 1
    55   25   53 1
