@<TRIPOS>MOLECULE
DB00645
   48    49     0     0     0
SMALL
USER_CHARGES

@<TRIPOS>ATOM
      1 O1         -1.1665   -2.6087   -0.6451 O.2       1 <0>        -0.2920
      2 O2          4.2315    0.0935    1.1482 O.3       1 <0>        -0.4920
      3 N1         -4.5891   -0.2768    0.1919 N.3       1 <0>        -0.3019
      4 C1         -5.8868   -0.9132   -0.0740 C.3       1 <0>        -0.0011
      5 C2         -4.4624    0.9949   -0.5339 C.3       1 <0>        -0.0011
      6 C3         -7.0435   -0.0010    0.3378 C.3       1 <0>        -0.0402
      7 C4         -5.5725    1.9693   -0.1375 C.3       1 <0>        -0.0402
      8 C5         -6.9516    1.3558   -0.3510 C.3       1 <0>        -0.0507
      9 C6         -3.4942   -1.1795   -0.1629 C.3       1 <0>         0.0059
     10 C7         -2.1416   -0.5842    0.2279 C.3       1 <0>         0.0232
     11 C8         -0.9879   -1.5172   -0.1094 C.2       1 <0>         0.1644
     12 C9          0.4025   -1.0883    0.2244 C.ar      1 <0>         0.0177
     13 C10         0.5875    0.1360    0.8249 C.ar      1 <0>        -0.0478
     14 C11         1.4448   -1.9334   -0.0803 C.ar      1 <0>        -0.0478
     15 C12         6.4118    0.6291    0.3024 C.3       1 <0>        -0.0189
     16 C13         2.9644   -0.2970    0.8415 C.ar      1 <0>         0.1205
     17 C14         1.8863    0.5371    1.1376 C.ar      1 <0>        -0.0193
     18 C15         2.7435   -1.5323    0.2324 C.ar      1 <0>        -0.0193
     19 C16         5.2806   -0.3893    0.3104 C.3       1 <0>         0.0896
     20 C17         7.5659    0.1823   -0.5904 C.3       1 <0>        -0.0528
     21 C18         8.6746    1.2218   -0.6295 C.3       1 <0>        -0.0652
     22 H1         -5.9686   -1.8451    0.4986 H         1 <0>         0.0426
     23 H2         -5.9842   -1.1735   -1.1363 H         1 <0>         0.0426
     24 H3         -4.4814    0.8332   -1.6196 H         1 <0>         0.0426
     25 H4         -3.5314    1.5139   -0.2914 H         1 <0>         0.0426
     26 H5         -7.9981   -0.4781    0.0885 H         1 <0>         0.0278
     27 H6         -7.0309    0.1399    1.4260 H         1 <0>         0.0278
     28 H7         -5.4572    2.2496    0.9175 H         1 <0>         0.0278
     29 H8         -5.4845    2.8907   -0.7243 H         1 <0>         0.0278
     30 H9         -7.1358    1.2342   -1.4255 H         1 <0>         0.0266
     31 H10        -7.7264    2.0273    0.0351 H         1 <0>         0.0266
     32 H11        -3.6179   -2.1311    0.3705 H         1 <0>         0.0431
     33 H12        -3.5073   -1.4154   -1.2356 H         1 <0>         0.0431
     34 H13        -2.1338   -0.3829    1.3051 H         1 <0>         0.0358
     35 H14        -1.9434    0.3333   -0.3326 H         1 <0>         0.0358
     36 H15        -0.2183    0.8168    1.0737 H         1 <0>         0.0626
     37 H16         1.2937   -2.9012   -0.5484 H         1 <0>         0.0626
     38 H17         6.0235    1.5980   -0.0360 H         1 <0>         0.0298
     39 H18         6.7649    0.7901    1.3287 H         1 <0>         0.0298
     40 H19         5.6390   -1.3478    0.7033 H         1 <0>         0.0696
     41 H20         4.9397   -0.5226   -0.7245 H         1 <0>         0.0696
     42 H21         2.0528    1.5004    1.6122 H         1 <0>         0.0654
     43 H22         3.5516   -2.2231    0.0106 H         1 <0>         0.0654
     44 H23         7.9737   -0.7672   -0.2245 H         1 <0>         0.0264
     45 H24         7.2036    0.0083   -1.6103 H         1 <0>         0.0264
     46 H25         9.4915    0.8807   -1.2732 H         1 <0>         0.0230
     47 H26         9.0816    1.3988    0.3712 H         1 <0>         0.0230
     48 H27         8.3061    2.1740   -1.0242 H         1 <0>         0.0230
@<TRIPOS>BOND
     1    1   11 2
     2    2   16 1
     3    2   19 1
     4    3    4 1
     5    3    5 1
     6    3    9 1
     7    4    6 1
     8    4   22 1
     9    4   23 1
    10    5    7 1
    11    5   24 1
    12    5   25 1
    13    6    8 1
    14    6   26 1
    15    6   27 1
    16    7    8 1
    17    7   28 1
    18    7   29 1
    19    8   30 1
    20    8   31 1
    21    9   10 1
    22    9   32 1
    23    9   33 1
    24   10   11 1
    25   10   34 1
    26   10   35 1
    27   11   12 1
    28   12   13 ar
    29   12   14 ar
    30   13   17 ar
    31   13   36 1
    32   14   18 ar
    33   14   37 1
    34   15   19 1
    35   15   20 1
    36   15   38 1
    37   15   39 1
    38   16   17 ar
    39   16   18 ar
    40   17   42 1
    41   18   43 1
    42   19   40 1
    43   19   41 1
    44   20   21 1
    45   20   44 1
    46   20   45 1
    47   21   46 1
    48   21   47 1
    49   21   48 1
