@<TRIPOS>MOLECULE
DB00679
   51    54     0     0     0
SMALL
USER_CHARGES

@<TRIPOS>ATOM
      1 S1         -4.3232    1.8913    0.0006 S.3       1 <0>        -0.0857
      2 S2          1.5407    4.0944   -1.0661 S.3       1 <0>        -0.1285
      3 N1          2.3465   -2.5562   -0.2641 N.3       1 <0>        -0.3023
      4 N2         -1.7025    0.2844    0.4634 N.pl3     1 <0>        -0.2982
      5 C1          1.5163   -1.7703    0.6688 C.3       1 <0>         0.0116
      6 C2          2.4021   -0.7629    1.4271 C.3       1 <0>        -0.0373
      7 C3          0.3044   -1.0694    0.0356 C.3       1 <0>        -0.0212
      8 C4          3.2107    0.1270    0.4878 C.3       1 <0>        -0.0505
      9 C5          3.0890   -1.7292   -1.2221 C.3       1 <0>        -0.0011
     10 C6          3.9910   -0.7233   -0.5066 C.3       1 <0>        -0.0402
     11 C7         -0.5407   -0.3593    1.0901 C.3       1 <0>         0.0188
     12 C8          1.6014   -3.6097   -0.9471 C.3       1 <0>        -0.0125
     13 C9         -1.5355    1.6079   -0.0170 C.ar      1 <0>         0.0489
     14 C10        -2.8823   -0.4899    0.3253 C.ar      1 <0>         0.0479
     15 C11        -2.6487    2.4279   -0.2880 C.ar      1 <0>         0.0342
     16 C12        -4.1291    0.1224    0.0884 C.ar      1 <0>         0.0341
     17 C13        -0.2594    2.1525   -0.2799 C.ar      1 <0>        -0.0258
     18 C14        -2.8616   -1.9007    0.3812 C.ar      1 <0>        -0.0393
     19 C15        -2.4776    3.7370   -0.7724 C.ar      1 <0>        -0.0451
     20 C16        -5.2948   -0.6508   -0.0556 C.ar      1 <0>        -0.0462
     21 C17        -0.0952    3.4525   -0.7662 C.ar      1 <0>         0.0094
     22 C18        -4.0225   -2.6645    0.2323 C.ar      1 <0>        -0.0599
     23 C19        -1.2053    4.2465   -1.0097 C.ar      1 <0>        -0.0472
     24 C20        -5.2408   -2.0387    0.0168 C.ar      1 <0>        -0.0606
     25 C21         2.2892    3.9811    0.5835 C.3       1 <0>        -0.0135
     26 H1          1.1330   -2.4704    1.4242 H         1 <0>         0.0463
     27 H2          3.1148   -1.3374    2.0372 H         1 <0>         0.0280
     28 H3          1.8558   -0.1545    2.1501 H         1 <0>         0.0280
     29 H4         -0.3021   -1.8060   -0.4966 H         1 <0>         0.0296
     30 H5          0.6286   -0.3825   -0.7502 H         1 <0>         0.0296
     31 H6          3.9038    0.7468    1.0677 H         1 <0>         0.0266
     32 H7          2.5623    0.8067   -0.0647 H         1 <0>         0.0266
     33 H8          2.4110   -1.2026   -1.9048 H         1 <0>         0.0426
     34 H9          3.7287   -2.3684   -1.8433 H         1 <0>         0.0426
     35 H10         4.4812   -0.0760   -1.2428 H         1 <0>         0.0278
     36 H11         4.7878   -1.2611    0.0232 H         1 <0>         0.0278
     37 H12         0.0183    0.3985    1.6462 H         1 <0>         0.0468
     38 H13        -0.8538   -1.0639    1.8723 H         1 <0>         0.0468
     39 H14         1.0368   -4.2176   -0.2316 H         1 <0>         0.0391
     40 H15         2.2940   -4.2914   -1.4540 H         1 <0>         0.0391
     41 H16         0.9079   -3.2209   -1.7002 H         1 <0>         0.0391
     42 H17         0.6354    1.5800   -0.0926 H         1 <0>         0.0647
     43 H18        -1.9540   -2.4642    0.5687 H         1 <0>         0.0636
     44 H19        -3.3367    4.3749   -0.9704 H         1 <0>         0.0630
     45 H20        -6.2601   -0.1781   -0.2265 H         1 <0>         0.0629
     46 H21        -3.9699   -3.7478    0.2912 H         1 <0>         0.0618
     47 H22        -1.1034    5.2615   -1.3846 H         1 <0>         0.0629
     48 H23        -6.1461   -2.6272   -0.0962 H         1 <0>         0.0618
     49 H24         2.3287    2.9490    0.9352 H         1 <0>         0.0344
     50 H25         1.7168    4.5809    1.2965 H         1 <0>         0.0344
     51 H26         3.3093    4.3717    0.5402 H         1 <0>         0.0344
@<TRIPOS>BOND
     1    1   15 1
     2    1   16 1
     3    2   21 1
     4    2   25 1
     5    3    5 1
     6    3    9 1
     7    3   12 1
     8    4   11 1
     9    4   13 1
    10    4   14 1
    11    5    6 1
    12    5    7 1
    13    5   26 1
    14    6    8 1
    15    6   27 1
    16    6   28 1
    17    7   11 1
    18    7   29 1
    19    7   30 1
    20    8   10 1
    21    8   31 1
    22    8   32 1
    23    9   10 1
    24    9   33 1
    25    9   34 1
    26   10   35 1
    27   10   36 1
    28   11   37 1
    29   11   38 1
    30   12   39 1
    31   12   40 1
    32   12   41 1
    33   13   15 ar
    34   13   17 ar
    35   14   16 ar
    36   14   18 ar
    37   15   19 ar
    38   16   20 ar
    39   17   21 ar
    40   17   42 1
    41   18   22 ar
    42   18   43 1
    43   19   23 ar
    44   19   44 1
    45   20   24 ar
    46   20   45 1
    47   21   23 ar
    48   22   24 ar
    49   22   46 1
    50   23   47 1
    51   24   48 1
    52   25   49 1
    53   25   50 1
    54   25   51 1
