@<TRIPOS>MOLECULE
DB00449
   54    54     0     0     0
SMALL
USER_CHARGES

@<TRIPOS>ATOM
      1 O1          0.3607    0.8136    0.3818 O.3       1 <0>        -0.4217
      2 O2          1.8176   -1.3072   -0.6699 O.3       1 <0>        -0.4217
      3 O3         -3.8640   -1.7904    1.9145 O.3       1 <0>        -0.3859
      4 O4         -1.1430    1.8007   -1.1017 O.2       1 <0>        -0.2498
      5 O5          2.2776   -2.0154    1.5045 O.2       1 <0>        -0.2498
      6 N1         -5.9628   -1.1070    0.0632 N.3       1 <0>        -0.3162
      7 C1          0.5346    3.2017   -0.0012 C.3       1 <0>         0.0598
      8 C2          4.1148   -1.4430   -0.0072 C.3       1 <0>         0.0598
      9 C3         -2.2170   -1.7714    0.1936 C.ar      1 <0>        -0.0142
     10 C4         -3.6658   -1.9430    0.5026 C.3       1 <0>         0.0927
     11 C5          0.4344    3.4792    1.5074 C.3       1 <0>        -0.0499
     12 C6         -0.1194    4.3604   -0.7654 C.3       1 <0>        -0.0499
     13 C7          2.0138    3.0708   -0.3870 C.3       1 <0>        -0.0499
     14 C8         -0.1974    1.8945   -0.3280 C.2       1 <0>         0.3179
     15 C9          4.4308   -2.3469   -1.2098 C.3       1 <0>        -0.0499
     16 C10         5.0278   -1.8334    1.1626 C.3       1 <0>        -0.0499
     17 C11         4.3499    0.0194   -0.4072 C.3       1 <0>        -0.0499
     18 C12         2.6490   -1.6327    0.4012 C.2       1 <0>         0.3179
     19 C13        -0.2376   -0.3869    0.1440 C.ar      1 <0>         0.1741
     20 C14         0.4600   -1.4547   -0.3767 C.ar      1 <0>         0.1738
     21 C15        -1.5930   -0.5472    0.4325 C.ar      1 <0>        -0.0099
     22 C16        -4.5473   -0.9284   -0.2524 C.3       1 <0>         0.0258
     23 C17        -1.4859   -2.8357   -0.3342 C.ar      1 <0>        -0.0524
     24 C18        -0.1306   -2.6753   -0.6231 C.ar      1 <0>        -0.0152
     25 C19        -6.7760   -0.1254   -0.6385 C.3       1 <0>        -0.0157
     26 H1         -3.9967   -2.9575    0.2476 H         1 <0>         0.0656
     27 H2         -0.6126    3.5177    1.8300 H         1 <0>         0.0240
     28 H3          0.9037    4.4347    1.7673 H         1 <0>         0.0240
     29 H4          0.9253    2.6974    2.0981 H         1 <0>         0.0240
     30 H5         -1.1781    4.4653   -0.5015 H         1 <0>         0.0240
     31 H6          0.3767    5.3122   -0.5450 H         1 <0>         0.0240
     32 H7         -0.0658    4.1996   -1.8483 H         1 <0>         0.0240
     33 H8          2.5453    4.0189   -0.2486 H         1 <0>         0.0240
     34 H9          2.5190    2.3171    0.2237 H         1 <0>         0.0240
     35 H10         2.1219    2.7715   -1.4356 H         1 <0>         0.0240
     36 H11         4.2016   -3.3947   -0.9834 H         1 <0>         0.0240
     37 H12         5.4892   -2.2846   -1.4860 H         1 <0>         0.0240
     38 H13         3.8425   -2.0705   -2.0921 H         1 <0>         0.0240
     39 H14         4.8298   -1.2121    2.0437 H         1 <0>         0.0240
     40 H15         6.0844   -1.7113    0.8997 H         1 <0>         0.0240
     41 H16         4.8740   -2.8780    1.4572 H         1 <0>         0.0240
     42 H17         3.7121    0.3267   -1.2431 H         1 <0>         0.0240
     43 H18         4.1370    0.6868    0.4347 H         1 <0>         0.0240
     44 H19         5.3913    0.1841   -0.7060 H         1 <0>         0.0240
     45 H20        -2.1504    0.2747    0.8752 H         1 <0>         0.0659
     46 H21        -4.2636    0.0947    0.0230 H         1 <0>         0.0453
     47 H22        -4.3853   -1.0426   -1.3317 H         1 <0>         0.0453
     48 H23        -1.9573   -3.7958   -0.5260 H         1 <0>         0.0622
     49 H24         0.4382   -3.5034   -1.0346 H         1 <0>         0.0656
     50 H25        -6.1021   -1.0082    1.0684 H         1 <0>         0.1217
     51 H26        -3.1928   -2.3247    2.3726 H         1 <0>         0.2103
     52 H27        -6.5174    0.8971   -0.3448 H         1 <0>         0.0388
     53 H28        -6.6699   -0.2243   -1.7237 H         1 <0>         0.0388
     54 H29        -7.8310   -0.2870   -0.3963 H         1 <0>         0.0388
@<TRIPOS>BOND
     1    1   14 1
     2    1   19 1
     3    2   18 1
     4    2   20 1
     5    3   10 1
     6    3   51 1
     7    4   14 2
     8    5   18 2
     9    6   22 1
    10    6   25 1
    11    6   50 1
    12    7   11 1
    13    7   12 1
    14    7   13 1
    15    7   14 1
    16    8   15 1
    17    8   16 1
    18    8   17 1
    19    8   18 1
    20    9   10 1
    21    9   21 ar
    22    9   23 ar
    23   10   22 1
    24   10   26 1
    25   11   27 1
    26   11   28 1
    27   11   29 1
    28   12   30 1
    29   12   31 1
    30   12   32 1
    31   13   33 1
    32   13   34 1
    33   13   35 1
    34   15   36 1
    35   15   37 1
    36   15   38 1
    37   16   39 1
    38   16   40 1
    39   16   41 1
    40   17   42 1
    41   17   43 1
    42   17   44 1
    43   19   20 ar
    44   19   21 ar
    45   20   24 ar
    46   21   45 1
    47   22   46 1
    48   22   47 1
    49   23   24 ar
    50   23   48 1
    51   24   49 1
    52   25   52 1
    53   25   53 1
    54   25   54 1
