@<TRIPOS>MOLECULE
DB00905
   67    68     0     0     0
SMALL
USER_CHARGES

@<TRIPOS>ATOM
      1 O1         -5.3363    1.4509   -1.6746 O.3       1 <0>        -0.3914
      2 O2         -6.2258   -1.2867    0.4441 O.3       1 <0>        -0.3911
      3 O3         -1.9231   -4.5071    1.3888 O.3       1 <0>        -0.3878
      4 O4          3.9854    2.3911   -0.8736 O.2       1 <0>        -0.2758
      5 N1          4.4447    1.1959    1.0649 N.am      1 <0>        -0.3156
      6 C1         -3.5329    1.0083   -0.0642 C.3       1 <0>        -0.0029
      7 C2         -3.9632   -0.4510    0.1555 C.3       1 <0>         0.0087
      8 C3         -4.8672    1.7022   -0.3552 C.3       1 <0>         0.0613
      9 C4         -5.2889   -0.3324    0.9281 C.3       1 <0>         0.0641
     10 C5         -5.8190    1.0874    0.6704 C.3       1 <0>         0.0001
     11 C6         -2.5056    1.1768   -1.1728 C.3       1 <0>        -0.0290
     12 C7         -2.9507   -1.2686    0.8953 C.2       1 <0>        -0.0796
     13 C8         -2.1638    2.6214   -1.3875 C.2       1 <0>        -0.0876
     14 C9         -2.3975   -2.3898    0.4103 C.2       1 <0>        -0.0595
     15 C10        -1.3816   -3.2081    1.1584 C.3       1 <0>         0.0737
     16 C11        -1.1481    3.2466   -0.7741 C.2       1 <0>        -0.0879
     17 C12        -0.0863   -3.3426    0.3445 C.3       1 <0>        -0.0193
     18 C13        -0.2261    2.5783    0.2046 C.3       1 <0>        -0.0343
     19 C14         0.7884   -2.0798    0.3518 C.3       1 <0>        -0.0250
     20 C15         1.2282    2.6422   -0.2735 C.3       1 <0>        -0.0414
     21 C16         2.0148   -2.1843   -0.5192 C.ar      1 <0>        -0.0473
     22 C17         2.1803    1.9009    0.6645 C.3       1 <0>         0.0242
     23 C18         3.2085   -2.6724    0.0126 C.ar      1 <0>        -0.0586
     24 C19         1.9558   -1.7933   -1.8570 C.ar      1 <0>        -0.0586
     25 C20         3.6215    1.8788    0.1814 C.2       1 <0>         0.2130
     26 C21         4.3430   -2.7691   -0.7931 C.ar      1 <0>        -0.0615
     27 C22         3.0905   -1.8903   -2.6626 C.ar      1 <0>        -0.0615
     28 C23         4.2840   -2.3783   -2.1307 C.ar      1 <0>        -0.0617
     29 C24         5.8592    1.0043    0.8399 C.3       1 <0>         0.0088
     30 C25         6.6526    2.2402    1.2108 C.3       1 <0>        -0.0495
     31 H1         -3.1276    1.4095    0.8768 H         1 <0>         0.0335
     32 H2         -4.1631   -0.9202   -0.8190 H         1 <0>         0.0372
     33 H3         -4.7995    2.7876   -0.2262 H         1 <0>         0.0597
     34 H4         -5.1667   -0.5009    2.0045 H         1 <0>         0.0600
     35 H5         -5.7497    1.6587    1.6040 H         1 <0>         0.0315
     36 H6         -6.8605    1.0956    0.3332 H         1 <0>         0.0315
     37 H7         -2.8937    0.7822   -2.1211 H         1 <0>         0.0311
     38 H8         -1.6156    0.5698   -0.9791 H         1 <0>         0.0311
     39 H9         -2.6524   -0.9157    1.8800 H         1 <0>         0.0573
     40 H10        -6.2015    1.8853   -1.7644 H         1 <0>         0.2098
     41 H11        -7.0524   -1.1627    0.9410 H         1 <0>         0.2098
     42 H12        -2.7887    3.1891   -2.0718 H         1 <0>         0.0569
     43 H13        -2.6955   -2.7479   -0.5725 H         1 <0>         0.0594
     44 H14        -1.1622   -2.7767    2.1412 H         1 <0>         0.0638
     45 H15        -0.9822    4.3007   -0.9811 H         1 <0>         0.0569
     46 H16         0.4992   -4.1801    0.7485 H         1 <0>         0.0296
     47 H17        -0.3192   -3.6363   -0.6885 H         1 <0>         0.0296
     48 H18        -0.4935    1.5429    0.4269 H         1 <0>         0.0307
     49 H19        -0.3075    3.1146    1.1585 H         1 <0>         0.0307
     50 H20         0.2001   -1.2134    0.0235 H         1 <0>         0.0314
     51 H21         1.0933   -1.8506    1.3813 H         1 <0>         0.0314
     52 H22         1.3019    2.2033   -1.2774 H         1 <0>         0.0273
     53 H23         1.5474    3.6882   -0.3677 H         1 <0>         0.0273
     54 H24        -2.0561   -4.9369    0.5262 H         1 <0>         0.2102
     55 H25         2.1593    2.3701    1.6555 H         1 <0>         0.0358
     56 H26         1.8503    0.8620    0.7817 H         1 <0>         0.0358
     57 H27         3.2666   -2.9808    1.0530 H         1 <0>         0.0620
     58 H28         1.0313   -1.4120   -2.2827 H         1 <0>         0.0620
     59 H29         5.2726   -3.1482   -0.3788 H         1 <0>         0.0618
     60 H30         3.0448   -1.5856   -3.7041 H         1 <0>         0.0618
     61 H31         4.0452    0.8088    1.9151 H         1 <0>         0.1487
     62 H32         5.1675   -2.4530   -2.7577 H         1 <0>         0.0618
     63 H33         6.0176    0.7574   -0.2153 H         1 <0>         0.0459
     64 H34         6.1761    0.1502    1.4464 H         1 <0>         0.0459
     65 H35         6.3554    3.1017    0.6038 H         1 <0>         0.0245
     66 H36         6.4961    2.5047    2.2620 H         1 <0>         0.0245
     67 H37         7.7221    2.0674    1.0565 H         1 <0>         0.0245
@<TRIPOS>BOND
     1    1    8 1
     2    1   40 1
     3    2    9 1
     4    2   41 1
     5    3   15 1
     6    3   54 1
     7    4   25 2
     8    5   25 am
     9    5   29 1
    10    5   61 1
    11    6    7 1
    12    6    8 1
    13    6   11 1
    14    6   31 1
    15    7    9 1
    16    7   12 1
    17    7   32 1
    18    8   10 1
    19    8   33 1
    20    9   10 1
    21    9   34 1
    22   10   35 1
    23   10   36 1
    24   11   13 1
    25   11   37 1
    26   11   38 1
    27   12   14 2
    28   12   39 1
    29   13   16 2
    30   13   42 1
    31   14   15 1
    32   14   43 1
    33   15   17 1
    34   15   44 1
    35   16   18 1
    36   16   45 1
    37   17   19 1
    38   17   46 1
    39   17   47 1
    40   18   20 1
    41   18   48 1
    42   18   49 1
    43   19   21 1
    44   19   50 1
    45   19   51 1
    46   20   22 1
    47   20   52 1
    48   20   53 1
    49   21   23 ar
    50   21   24 ar
    51   22   25 1
    52   22   55 1
    53   22   56 1
    54   23   26 ar
    55   23   57 1
    56   24   27 ar
    57   24   58 1
    58   26   28 ar
    59   26   59 1
    60   27   28 ar
    61   27   60 1
    62   28   62 1
    63   29   30 1
    64   29   63 1
    65   29   64 1
    66   30   65 1
    67   30   66 1
    68   30   67 1
