@<TRIPOS>MOLECULE
DB00962
   38    40     0     0     0
SMALL
USER_CHARGES

@<TRIPOS>ATOM
      1 O1          1.3729   -2.4185    0.2115 O.2       1 <0>        -0.2756
      2 N1          2.5851   -0.4001    0.3741 N.am      1 <0>        -0.2719
      3 N2         -3.0943   -0.0637    0.2091 N.pl3     1 <0>        -0.2127
      4 N3         -3.0142   -0.6335    1.4446 N.2       1 <0>        -0.1715
      5 N4         -4.6398    0.1169   -1.6334 N.2       1 <0>        -0.2350
      6 N5         -7.4335   -2.0362    0.1974 N.1       1 <0>        -0.1907
      7 C1         -0.8201    1.0108    0.1668 C.ar      1 <0>         0.0023
      8 C2          1.4973    0.4527    0.5647 C.ar      1 <0>         0.0369
      9 C3         -2.1196    0.7003   -0.4557 C.2       1 <0>         0.0763
     10 C4          0.2674    0.1578   -0.0236 C.ar      1 <0>        -0.0311
     11 C5          3.9532    0.1989    0.2893 C.3       1 <0>         0.0169
     12 C6         -0.6767    2.1589    0.9463 C.ar      1 <0>        -0.0524
     13 C7          1.6403    1.6008    1.3440 C.ar      1 <0>        -0.0402
     14 C8         -4.3282   -0.3397   -0.3882 C.2       1 <0>         0.1736
     15 C9          0.5533    2.4538    1.5348 C.ar      1 <0>        -0.0594
     16 C10        -2.3864    1.1704   -1.6858 C.2       1 <0>        -0.0174
     17 C11         2.4484   -1.8161    0.1658 C.2       1 <0>         0.2167
     18 C12         4.2468    0.6310   -1.1345 C.3       1 <0>        -0.0489
     19 C13        -5.0389   -1.0987    0.5132 C.2       1 <0>         0.1155
     20 C14        -3.7235    0.8184   -2.2250 C.2       1 <0>         0.0320
     21 C15        -4.1850   -1.2451    1.6125 C.2       1 <0>         0.0694
     22 C16         3.6903   -2.6121   -0.1645 C.3       1 <0>         0.0127
     23 C17        -6.3522   -1.6129    0.3399 C.1       1 <0>         0.1045
     24 H1          0.1364   -0.6964   -0.6816 H         1 <0>         0.0643
     25 H2          4.6998   -0.5332    0.6068 H         1 <0>         0.0466
     26 H3          4.0871    1.0393    0.9710 H         1 <0>         0.0466
     27 H4         -1.5152    2.8322    1.1071 H         1 <0>         0.0624
     28 H5          2.5545    1.8575    1.8663 H         1 <0>         0.0636
     29 H6          0.6605    3.3420    2.1508 H         1 <0>         0.0618
     30 H7         -1.7126    1.7702   -2.2832 H         1 <0>         0.0654
     31 H8          5.2756    0.9962   -1.2143 H         1 <0>         0.0245
     32 H9          3.5791    1.4443   -1.4389 H         1 <0>         0.0245
     33 H10         4.1175   -0.1804   -1.8556 H         1 <0>         0.0245
     34 H11        -3.9309    1.2092   -3.2347 H         1 <0>         0.0831
     35 H12        -4.3609   -1.7752    2.5380 H         1 <0>         0.0862
     36 H13         3.4005   -3.6385   -0.4134 H         1 <0>         0.0323
     37 H14         4.2159   -2.2042   -1.0277 H         1 <0>         0.0323
     38 H15         4.3499   -2.6572    0.7059 H         1 <0>         0.0323
@<TRIPOS>BOND
     1    1   17 2
     2    2    8 1
     3    2   11 1
     4    2   17 am
     5    3    4 1
     6    3    9 2
     7    3   14 1
     8    4   21 2
     9    5   14 2
    10    5   20 1
    11    6   23 3
    12    7    9 1
    13    7   10 ar
    14    7   12 ar
    15    8   10 ar
    16    8   13 ar
    17    9   16 1
    18   10   24 1
    19   11   18 1
    20   11   25 1
    21   11   26 1
    22   12   15 ar
    23   12   27 1
    24   13   15 ar
    25   13   28 1
    26   14   19 2
    27   15   29 1
    28   16   20 2
    29   16   30 1
    30   17   22 1
    31   18   31 1
    32   18   32 1
    33   18   33 1
    34   19   21 1
    35   19   23 1
    36   20   34 1
    37   21   35 1
    38   22   36 1
    39   22   37 1
    40   22   38 1
