@<TRIPOS>MOLECULE
DB00654
   71    72     0     0     0
SMALL
USER_CHARGES

@<TRIPOS>ATOM
      1 O1          2.0490   -3.8083   -1.5441 O.3       1 <0>        -0.3914
      2 O2          5.1154   -1.9142   -0.6366 O.3       1 <0>        -0.3914
      3 O3         -0.9552   -2.5828    2.9039 O.3       1 <0>        -0.3918
      4 O4         -0.1193    3.0088   -0.8033 O.3       1 <0>        -0.4619
      5 O5         -1.0345    2.3990    1.2248 O.2       1 <0>        -0.2508
      6 C1          2.2414   -1.9870    0.0354 C.3       1 <0>        -0.0094
      7 C2          3.0720   -0.6982   -0.0463 C.3       1 <0>        -0.0063
      8 C3          2.0797   -2.3933   -1.4362 C.3       1 <0>         0.0607
      9 C4          4.1001   -1.0468   -1.1296 C.3       1 <0>         0.0610
     10 C5          3.2890   -1.8070   -2.1809 C.3       1 <0>        -0.0002
     11 C6          0.9002   -1.8100    0.7366 C.3       1 <0>        -0.0452
     12 C7          3.6783   -0.2841    1.2873 C.3       1 <0>        -0.0292
     13 C8          0.1359   -3.1333    0.8167 C.3       1 <0>        -0.0265
     14 C9         -1.1990   -2.9833    1.5575 C.3       1 <0>         0.0556
     15 C10         4.5138    0.9527    1.1434 C.2       1 <0>        -0.0876
     16 C11        -2.1019   -1.9518    0.8685 C.3       1 <0>        -0.0229
     17 C12         4.0273    2.1983    1.2473 C.2       1 <0>        -0.0879
     18 C13        -3.5709   -2.1063    1.2792 C.3       1 <0>        -0.0253
     19 C14         2.5840    2.5064    1.5208 C.3       1 <0>        -0.0343
     20 C15        -4.4435   -1.0675    0.6214 C.ar      1 <0>        -0.0473
     21 C16         2.1226    3.8313    0.8992 C.3       1 <0>        -0.0395
     22 C17         0.6401    4.1487    1.1059 C.3       1 <0>         0.0452
     23 C18        -4.6641    0.1578    1.2504 C.ar      1 <0>        -0.0586
     24 C19        -5.0300   -1.3315   -0.6165 C.ar      1 <0>        -0.0586
     25 C20        -5.4713    1.1190    0.6418 C.ar      1 <0>        -0.0615
     26 C21        -5.8371   -0.3703   -1.2250 C.ar      1 <0>        -0.0615
     27 C22        -0.2686    3.0758    0.5516 C.2       1 <0>         0.3073
     28 C23        -6.0575    0.8550   -0.5958 C.ar      1 <0>        -0.0617
     29 C24        -0.9479    2.0500   -1.4681 C.3       1 <0>         0.0975
     30 C25        -2.2731    2.7011   -1.8334 C.3       1 <0>        -0.0280
     31 C26        -0.2185    1.5224   -2.6944 C.3       1 <0>        -0.0280
     32 H1          2.8110   -2.7605    0.5704 H         1 <0>         0.0329
     33 H2          2.4305    0.1075   -0.4310 H         1 <0>         0.0332
     34 H3          1.1523   -1.9989   -1.8684 H         1 <0>         0.0597
     35 H4          4.5816   -0.1587   -1.5511 H         1 <0>         0.0597
     36 H5          3.8761   -2.5745   -2.6959 H         1 <0>         0.0315
     37 H6          2.9216   -1.0954   -2.9302 H         1 <0>         0.0315
     38 H7          1.0631   -1.4257    1.7493 H         1 <0>         0.0270
     39 H8          0.3139   -1.0538    0.2022 H         1 <0>         0.0270
     40 H9          2.8982   -0.1334    2.0414 H         1 <0>         0.0311
     41 H10         4.3117   -1.0823    1.6943 H         1 <0>         0.0311
     42 H11        -0.0687   -3.5281   -0.1836 H         1 <0>         0.0290
     43 H12         0.7543   -3.8684    1.3463 H         1 <0>         0.0290
     44 H13         1.9844   -4.0270   -2.4894 H         1 <0>         0.2098
     45 H14         5.7188   -2.1073   -1.3742 H         1 <0>         0.2098
     46 H15        -1.6867   -3.9648    1.5830 H         1 <0>         0.0593
     47 H16         5.5742    0.8205    0.9452 H         1 <0>         0.0569
     48 H17        -2.0316   -2.0616   -0.2213 H         1 <0>         0.0293
     49 H18        -1.7738   -0.9353    1.1214 H         1 <0>         0.0293
     50 H19         4.7176    3.0328    1.1554 H         1 <0>         0.0569
     51 H20        -3.9322   -3.1084    1.0152 H         1 <0>         0.0314
     52 H21        -3.6778   -2.0271    2.3679 H         1 <0>         0.0314
     53 H22        -1.8045   -2.5926    3.3759 H         1 <0>         0.2098
     54 H23         2.4471    2.5712    2.6073 H         1 <0>         0.0307
     55 H24         1.9324    1.7057    1.1611 H         1 <0>         0.0307
     56 H25         2.7143    4.6547    1.3191 H         1 <0>         0.0273
     57 H26         2.3388    3.8133   -0.1770 H         1 <0>         0.0273
     58 H27         0.3772    5.1039    0.6380 H         1 <0>         0.0378
     59 H28         0.4294    4.2491    2.1771 H         1 <0>         0.0378
     60 H29        -4.2101    0.3765    2.2134 H         1 <0>         0.0620
     61 H30        -4.8638   -2.2815   -1.1175 H         1 <0>         0.0620
     62 H31        -5.6416    2.0737    1.1308 H         1 <0>         0.0618
     63 H32        -6.2928   -0.5752   -2.1892 H         1 <0>         0.0618
     64 H33        -6.6849    1.6039   -1.0702 H         1 <0>         0.0618
     65 H34        -1.1382    1.1883   -0.8152 H         1 <0>         0.0728
     66 H35        -2.7944    3.0546   -0.9376 H         1 <0>         0.0265
     67 H36        -2.9286    1.9994   -2.3585 H         1 <0>         0.0265
     68 H37        -2.1147    3.5775   -2.4715 H         1 <0>         0.0265
     69 H38         0.7316    1.0616   -2.4025 H         1 <0>         0.0265
     70 H39        -0.8185    0.7783   -3.2268 H         1 <0>         0.0265
     71 H40         0.0262    2.3372   -3.3847 H         1 <0>         0.0265
@<TRIPOS>BOND
     1    1    8 1
     2    1   44 1
     3    2    9 1
     4    2   45 1
     5    3   14 1
     6    3   53 1
     7    4   27 1
     8    4   29 1
     9    5   27 2
    10    6    7 1
    11    6    8 1
    12    6   11 1
    13    6   32 1
    14    7    9 1
    15    7   12 1
    16    7   33 1
    17    8   10 1
    18    8   34 1
    19    9   10 1
    20    9   35 1
    21   10   36 1
    22   10   37 1
    23   11   13 1
    24   11   38 1
    25   11   39 1
    26   12   15 1
    27   12   40 1
    28   12   41 1
    29   13   14 1
    30   13   42 1
    31   13   43 1
    32   14   16 1
    33   14   46 1
    34   15   17 2
    35   15   47 1
    36   16   18 1
    37   16   48 1
    38   16   49 1
    39   17   19 1
    40   17   50 1
    41   18   20 1
    42   18   51 1
    43   18   52 1
    44   19   21 1
    45   19   54 1
    46   19   55 1
    47   20   23 ar
    48   20   24 ar
    49   21   22 1
    50   21   56 1
    51   21   57 1
    52   22   27 1
    53   22   58 1
    54   22   59 1
    55   23   25 ar
    56   23   60 1
    57   24   26 ar
    58   24   61 1
    59   25   28 ar
    60   25   62 1
    61   26   28 ar
    62   26   63 1
    63   28   64 1
    64   29   30 1
    65   29   31 1
    66   29   65 1
    67   30   66 1
    68   30   67 1
    69   30   68 1
    70   31   69 1
    71   31   70 1
    72   31   71 1
