@<TRIPOS>MOLECULE
DB00274
   47    49     0     0     0
SMALL
USER_CHARGES

@<TRIPOS>ATOM
      1 S1          1.0920    0.7615   -1.8868 S.3       1 <0>        -0.1285
      2 S2         -3.3798   -0.0466   -0.3291 S.3       1 <0>        -0.0801
      3 S3          3.5550   -3.8586    0.4971 S.3       1 <0>        -0.1365
      4 O1          4.1207    1.9226    0.4679 O.3       1 <0>        -0.3492
      5 O2          2.2193    0.5793    2.6204 O.2       1 <0>        -0.2701
      6 O3         -0.5198    2.1449    2.9521 O.3       1 <0>        -0.4763
      7 O4         -1.6493    0.2156    2.4704 O.2       1 <0>        -0.2437
      8 O5          4.4288   -1.0620    1.5470 O.2       1 <0>        -0.2748
      9 N1          1.0101    1.2702    0.7178 N.am      1 <0>        -0.2439
     10 N2          3.3593   -0.2436   -0.3428 N.am      1 <0>        -0.2773
     11 N3         -6.1062   -0.5178   -0.3103 N.pl3     1 <0>        -0.2233
     12 N4         -5.6135    1.5913   -0.2019 N.2       1 <0>        -0.1015
     13 N5         -7.2852    0.1173   -0.2548 N.2       1 <0>        -0.0435
     14 N6         -6.9775    1.4068   -0.1882 N.2       1 <0>        -0.0222
     15 N7          0.2332   -5.4284    0.9796 N.1       1 <0>        -0.1957
     16 C1          1.7474    1.6685   -0.4675 C.3       1 <0>         0.1322
     17 C2          2.9908    1.0626    0.2197 C.3       1 <0>         0.2424
     18 C3          2.0773    0.9262    1.4712 C.2       1 <0>         0.2746
     19 C4         -0.3436    1.3127    0.8145 C.2       1 <0>         0.1229
     20 C5         -1.1269    1.4514   -0.2818 C.2       1 <0>        -0.0211
     21 C6         -0.5805    1.4692   -1.7077 C.3       1 <0>         0.0197
     22 C7         -2.6301    1.5883   -0.2500 C.3       1 <0>         0.0253
     23 C8         -0.9227    1.1362    2.1544 C.2       1 <0>         0.3514
     24 C9          4.0557   -1.2021    0.3834 C.2       1 <0>         0.2254
     25 C10         4.7469    2.4566   -0.6889 C.3       1 <0>         0.0396
     26 C11         4.3079   -2.4741   -0.3901 C.3       1 <0>         0.0712
     27 C12        -5.0940    0.3876   -0.2774 C.cat     1 <0>         0.2094
     28 C13         1.8444   -3.6254   -0.0414 C.3       1 <0>         0.0811
     29 C14        -6.0567   -1.9556   -0.3919 C.3       1 <0>         0.0346
     30 C15         0.9480   -4.6325    0.5299 C.1       1 <0>         0.0732
     31 H1          1.7790    2.7572   -0.5936 H         1 <0>         0.0672
     32 H2          3.1087   -0.4608   -1.3042 H         1 <0>         0.1520
     33 H3         -0.5699    2.5002   -2.0782 H         1 <0>         0.0423
     34 H4         -1.2275    0.8856   -2.3707 H         1 <0>         0.0423
     35 H5         -2.9746    2.2093   -1.0850 H         1 <0>         0.0427
     36 H6         -2.9513    2.0946    0.6673 H         1 <0>         0.0427
     37 H7          5.6185    3.0353   -0.3716 H         1 <0>         0.0524
     38 H8          4.0643    3.1222   -1.2235 H         1 <0>         0.0524
     39 H9          5.0844    1.6545   -1.3514 H         1 <0>         0.0524
     40 H10         5.3909   -2.6263   -0.4358 H         1 <0>         0.0471
     41 H11         3.9374   -2.4257   -1.4177 H         1 <0>         0.0471
     42 H12        -0.8843    2.0662    3.8594 H         1 <0>         0.2954
     43 H13         1.5052   -2.6291    0.2595 H         1 <0>         0.0531
     44 H14         1.8054   -3.6799   -1.1339 H         1 <0>         0.0531
     45 H15        -5.5163   -2.3349    0.4788 H         1 <0>         0.0474
     46 H16        -7.0738   -2.3564   -0.3970 H         1 <0>         0.0474
     47 H17        -5.5468   -2.2340   -1.3173 H         1 <0>         0.0474
@<TRIPOS>BOND
     1    1   16 1
     2    1   21 1
     3    2   22 1
     4    2   27 1
     5    3   26 1
     6    3   28 1
     7    4   17 1
     8    4   25 1
     9    5   18 2
    10    6   23 1
    11    6   42 1
    12    7   23 2
    13    8   24 2
    14    9   16 1
    15    9   18 am
    16    9   19 1
    17   10   17 1
    18   10   24 am
    19   10   32 1
    20   11   13 1
    21   11   27 2
    22   11   29 1
    23   12   14 2
    24   12   27 1
    25   13   14 1
    26   15   30 3
    27   16   17 1
    28   16   31 1
    29   17   18 1
    30   19   20 2
    31   19   23 1
    32   20   21 1
    33   20   22 1
    34   21   33 1
    35   21   34 1
    36   22   35 1
    37   22   36 1
    38   24   26 1
    39   25   37 1
    40   25   38 1
    41   25   39 1
    42   26   40 1
    43   26   41 1
    44   28   30 1
    45   28   43 1
    46   28   44 1
    47   29   45 1
    48   29   46 1
    49   29   47 1
