@<TRIPOS>MOLECULE
DB00825
   31    31     0     0     0
SMALL
USER_CHARGES

@<TRIPOS>ATOM
      1 O1          0.2984   -2.5377   -0.5771 O.3       1 <0>        -0.3915
      2 C1          0.6847   -0.1532   -0.4677 C.3       1 <0>        -0.0126
      3 C2         -0.1286   -1.3418    0.0706 C.3       1 <0>         0.0585
      4 C3          0.1622    1.1702    0.1063 C.3       1 <0>        -0.0474
      5 C4         -2.1427    0.1657    0.4034 C.3       1 <0>        -0.0415
      6 C5         -1.6277   -1.1558   -0.1751 C.3       1 <0>        -0.0240
      7 C6         -1.3336    1.3473   -0.1446 C.3       1 <0>        -0.0500
      8 C7          2.1763   -0.3127   -0.1611 C.3       1 <0>        -0.0415
      9 C8         -3.6296    0.3440    0.1025 C.3       1 <0>        -0.0623
     10 C9          2.9770    0.8133   -0.8081 C.3       1 <0>        -0.0623
     11 C10         2.4104   -0.3448    1.3463 C.3       1 <0>        -0.0623
     12 H1          0.5688   -0.1289   -1.5610 H         1 <0>         0.0328
     13 H2          0.0083   -1.4824    1.1458 H         1 <0>         0.0596
     14 H3          0.6741    2.0274   -0.3424 H         1 <0>         0.0269
     15 H4          0.3128    1.2319    1.1885 H         1 <0>         0.0269
     16 H5         -2.0206    0.1375    1.4944 H         1 <0>         0.0299
     17 H6         -2.1739   -2.0020    0.2612 H         1 <0>         0.0293
     18 H7         -1.8315   -1.2022   -1.2537 H         1 <0>         0.0293
     19 H8         -1.6713    2.2799    0.3233 H         1 <0>         0.0268
     20 H9         -1.5087    1.4527   -1.2231 H         1 <0>         0.0268
     21 H10         2.5333   -1.2584   -0.5877 H         1 <0>         0.0299
     22 H11        -4.2120   -0.4842    0.5200 H         1 <0>         0.0232
     23 H12        -4.0060    1.2735    0.5427 H         1 <0>         0.0232
     24 H13        -3.8169    0.3798   -0.9760 H         1 <0>         0.0232
     25 H14         2.8334    1.7767   -0.3093 H         1 <0>         0.0232
     26 H15         4.0483    0.5880   -0.7516 H         1 <0>         0.0232
     27 H16         2.7234    0.9264   -1.8674 H         1 <0>         0.0232
     28 H17         2.1581    0.5918    1.8501 H         1 <0>         0.0232
     29 H18         3.4799   -0.5033    1.5352 H         1 <0>         0.0232
     30 H19         1.8996   -1.1689    1.8484 H         1 <0>         0.0232
     31 H20         0.1542   -2.4299   -1.5328 H         1 <0>         0.2098
@<TRIPOS>BOND
     1    1    3 1
     2    1   31 1
     3    2    3 1
     4    2    4 1
     5    2    8 1
     6    2   12 1
     7    3    6 1
     8    3   13 1
     9    4    7 1
    10    4   14 1
    11    4   15 1
    12    5    6 1
    13    5    7 1
    14    5    9 1
    15    5   16 1
    16    6   17 1
    17    6   18 1
    18    7   19 1
    19    7   20 1
    20    8   10 1
    21    8   11 1
    22    8   21 1
    23    9   22 1
    24    9   23 1
    25    9   24 1
    26   10   25 1
    27   10   26 1
    28   10   27 1
    29   11   28 1
    30   11   29 1
    31   11   30 1
