@<TRIPOS>MOLECULE
DB00236
   32    32     0     0     0
SMALL
USER_CHARGES

@<TRIPOS>ATOM
      1 Br1         6.4127    1.1732    0.1932 Br        1 <0>        -0.0913
      2 Br2        -6.4080   -1.1764   -0.2299 Br        1 <0>        -0.0913
      3 O1          3.0178   -1.9271   -0.0252 O.2       1 <0>        -0.2756
      4 O2         -3.0062    1.9197   -0.0685 O.2       1 <0>        -0.2756
      5 N1          1.3354   -0.3560   -0.3341 N.am      1 <0>        -0.2985
      6 N2         -1.3319    0.3540    0.3052 N.am      1 <0>        -0.2985
      7 C1          0.2756   -1.3633   -0.4267 C.3       1 <0>         0.0305
      8 C2          0.8833    1.0263   -0.5411 C.3       1 <0>         0.0305
      9 C3         -0.8796   -1.0281    0.5130 C.3       1 <0>         0.0305
     10 C4         -0.2719    1.3613    0.3986 C.3       1 <0>         0.0305
     11 C5          2.6566   -0.7526   -0.1343 C.2       1 <0>         0.2164
     12 C6         -2.6529    0.7503    0.1038 C.2       1 <0>         0.2164
     13 C7          3.6847    0.3466   -0.0466 C.3       1 <0>         0.0337
     14 C8         -3.6914   -0.3427    0.0985 C.3       1 <0>         0.0337
     15 C9          5.0626   -0.2333    0.1699 C.3       1 <0>         0.0116
     16 C10        -5.0678    0.2363   -0.1294 C.3       1 <0>         0.0116
     17 H1          0.6629   -2.3615   -0.2002 H         1 <0>         0.0480
     18 H2         -0.0697   -1.3690   -1.4675 H         1 <0>         0.0480
     19 H3          0.5548    1.0968   -1.5851 H         1 <0>         0.0480
     20 H4          1.6869    1.7510   -0.4024 H         1 <0>         0.0480
     21 H5         -1.6830   -1.7530    0.3746 H         1 <0>         0.0480
     22 H6         -0.5509   -1.0981    1.5569 H         1 <0>         0.0480
     23 H7          0.0733    1.3658    1.4395 H         1 <0>         0.0480
     24 H8         -0.6591    2.3598    0.1737 H         1 <0>         0.0480
     25 H9          3.4261    1.0137    0.7837 H         1 <0>         0.0366
     26 H10         3.6664    0.9219   -0.9794 H         1 <0>         0.0366
     27 H11        -3.6606   -0.8726    1.0573 H         1 <0>         0.0366
     28 H12        -3.4525   -1.0508   -0.7033 H         1 <0>         0.0366
     29 H13         5.3565   -0.9165   -0.6330 H         1 <0>         0.0387
     30 H14         5.1455   -0.7547    1.1282 H         1 <0>         0.0387
     31 H15        -5.1375    0.7822   -1.0753 H         1 <0>         0.0387
     32 H16        -5.3782    0.8968    0.6858 H         1 <0>         0.0387
@<TRIPOS>BOND
     1    1   15 1
     2    2   16 1
     3    3   11 2
     4    4   12 2
     5    5    7 1
     6    5    8 1
     7    5   11 am
     8    6    9 1
     9    6   10 1
    10    6   12 am
    11    7    9 1
    12    7   17 1
    13    7   18 1
    14    8   10 1
    15    8   19 1
    16    8   20 1
    17    9   21 1
    18    9   22 1
    19   10   23 1
    20   10   24 1
    21   11   13 1
    22   12   14 1
    23   13   15 1
    24   13   25 1
    25   13   26 1
    26   14   16 1
    27   14   27 1
    28   14   28 1
    29   15   29 1
    30   15   30 1
    31   16   31 1
    32   16   32 1
