@<TRIPOS>MOLECULE
DB00633
   31    32     0     0     0
SMALL
USER_CHARGES

@<TRIPOS>ATOM
      1 N1          2.6523   -1.3516   -0.1797 N.pl3     1 <0>        -0.3477
      2 N2          3.3506   -0.4679   -2.0937 N.2       1 <0>        -0.2440
      3 C1          1.1509    0.3934    0.7711 C.3       1 <0>         0.0232
      4 C2         -0.2348    0.6375    0.2690 C.ar      1 <0>        -0.0356
      5 C3         -1.1921   -0.3769    0.2768 C.ar      1 <0>        -0.0437
      6 C4          2.0970   -0.1486   -0.3121 C.cat     1 <0>         0.0425
      7 C5          1.8212    1.5803    1.5073 C.3       1 <0>        -0.0529
      8 C6         -2.4795   -0.1244   -0.1968 C.ar      1 <0>        -0.0473
      9 C7         -0.5650    1.9045   -0.2120 C.ar      1 <0>        -0.0577
     10 C8         -0.8379   -1.7356    0.7919 C.3       1 <0>        -0.0392
     11 C9         -2.8097    1.1426   -0.6777 C.ar      1 <0>        -0.0586
     12 C10        -1.8526    2.1572   -0.6853 C.ar      1 <0>        -0.0612
     13 C11         2.5025    0.4013   -1.4545 C.2       1 <0>         0.0490
     14 C12        -3.5228   -1.1935   -0.2003 C.3       1 <0>        -0.0395
     15 C13         3.4199   -1.5132   -1.2994 C.cat     1 <0>         0.0935
     16 H1          1.0980   -0.3671    1.5616 H         1 <0>         0.0410
     17 H2          2.7547    1.2557    1.9823 H         1 <0>         0.0239
     18 H3          1.1651    1.9763    2.2903 H         1 <0>         0.0239
     19 H4          2.0798    2.3999    0.8281 H         1 <0>         0.0239
     20 H5          0.1580    2.7132   -0.2472 H         1 <0>         0.0621
     21 H6         -0.6282   -1.6941    1.8661 H         1 <0>         0.0278
     22 H7         -1.6238   -2.4838    0.6654 H         1 <0>         0.0278
     23 H8          0.0278   -2.1414    0.2619 H         1 <0>         0.0278
     24 H9         -3.8076    1.3567   -1.0515 H         1 <0>         0.0620
     25 H10        -2.1089    3.1427   -1.0633 H         1 <0>         0.0618
     26 H11         2.5449   -2.0154    0.5768 H         1 <0>         0.1665
     27 H12         2.2587    1.3616   -1.8842 H         1 <0>         0.0848
     28 H13        -3.2322   -2.0183   -0.8593 H         1 <0>         0.0278
     29 H14        -3.7028   -1.5673    0.8131 H         1 <0>         0.0278
     30 H15        -4.4829   -0.8156   -0.5704 H         1 <0>         0.0278
     31 H16         3.9997   -2.4084   -1.4741 H         1 <0>         0.1027
@<TRIPOS>BOND
     1    1    6 1
     2    1   15 2
     3    1   26 1
     4    2   13 2
     5    2   15 1
     6    3    4 1
     7    3    6 1
     8    3    7 1
     9    3   16 1
    10    4    5 ar
    11    4    9 ar
    12    5    8 ar
    13    5   10 1
    14    6   13 1
    15    7   17 1
    16    7   18 1
    17    7   19 1
    18    8   11 ar
    19    8   14 1
    20    9   12 ar
    21    9   20 1
    22   10   21 1
    23   10   22 1
    24   10   23 1
    25   11   12 ar
    26   11   24 1
    27   12   25 1
    28   13   27 1
    29   14   28 1
    30   14   29 1
    31   14   30 1
    32   15   31 1
