@<TRIPOS>MOLECULE
DB00230
   28    27     0     0     0
SMALL
USER_CHARGES

@<TRIPOS>ATOM
      1 O1         -1.6966    2.4126    0.9553 O.3       1 <0>        -0.4806
      2 O2         -2.8676    2.1296   -0.9750 O.2       1 <0>        -0.2510
      3 N1         -2.2808   -1.7457   -0.6234 N.3       1 <0>        -0.3297
      4 C1         -0.5699   -0.2165    0.3603 C.3       1 <0>        -0.0184
      5 C2          0.5945   -1.1626   -0.0214 C.3       1 <0>        -0.0462
      6 C3          1.9963   -0.5229   -0.0922 C.3       1 <0>        -0.0464
      7 C4         -0.7878    0.9277   -0.6472 C.3       1 <0>         0.0487
      8 C5         -1.8354   -1.0735    0.5927 C.3       1 <0>        -0.0036
      9 C6          2.4084    0.1309    1.2271 C.3       1 <0>        -0.0627
     10 C7          2.0298    0.5181   -1.2156 C.3       1 <0>        -0.0627
     11 C8         -1.8991    1.8766   -0.2728 C.2       1 <0>         0.3050
     12 H1         -0.3374    0.2298    1.3354 H         1 <0>         0.0318
     13 H2          0.3936   -1.6340   -0.9917 H         1 <0>         0.0271
     14 H3          0.6406   -1.9794    0.7115 H         1 <0>         0.0271
     15 H4          2.7118   -1.3205   -0.3289 H         1 <0>         0.0296
     16 H5         -0.9891    0.5404   -1.6518 H         1 <0>         0.0381
     17 H6          0.0525    1.6087   -0.7057 H         1 <0>         0.0381
     18 H7         -2.6499   -0.4416    0.9634 H         1 <0>         0.0425
     19 H8         -1.6454   -1.8236    1.3693 H         1 <0>         0.0425
     20 H9          2.3399   -0.5858    2.0520 H         1 <0>         0.0232
     21 H10         1.7877    0.9976    1.4749 H         1 <0>         0.0232
     22 H11         3.4466    0.4762    1.1710 H         1 <0>         0.0232
     23 H12         1.9378    1.5494   -0.8658 H         1 <0>         0.0232
     24 H13         1.3500    0.2974   -2.0431 H         1 <0>         0.0232
     25 H14         3.0346    0.4891   -1.6604 H         1 <0>         0.0232
     26 H15        -3.1447   -2.2507   -0.4292 H         1 <0>         0.1182
     27 H16        -1.6029   -2.4540   -0.8993 H         1 <0>         0.1182
     28 H17        -2.4177    3.0267    1.2106 H         1 <0>         0.2951
@<TRIPOS>BOND
     1    1   11 1
     2    1   28 1
     3    2   11 2
     4    3    8 1
     5    3   26 1
     6    3   27 1
     7    4    5 1
     8    4    7 1
     9    4    8 1
    10    4   12 1
    11    5    6 1
    12    5   13 1
    13    5   14 1
    14    6    9 1
    15    6   10 1
    16    6   15 1
    17    7   11 1
    18    7   16 1
    19    7   17 1
    20    8   18 1
    21    8   19 1
    22    9   20 1
    23    9   21 1
    24    9   22 1
    25   10   23 1
    26   10   24 1
    27   10   25 1
