@<TRIPOS>MOLECULE
DB00389
   22    22     0     0     0
SMALL
USER_CHARGES

@<TRIPOS>ATOM
      1 S1         -0.5001    2.1331   -0.0019 S.2       1 <0>        -0.0122
      2 O1          1.7056   -0.0236   -0.0001 O.3       1 <0>        -0.4484
      3 O2          1.2351   -2.2600   -0.0014 O.2       1 <0>        -0.2227
      4 N1         -2.5755    0.2862    0.0008 N.pl3     1 <0>        -0.3290
      5 N2         -0.5083   -0.6996    0.0001 N.am      1 <0>        -0.2308
      6 C1         -1.1836    0.6132    0.0001 C.2       1 <0>         0.1695
      7 C2         -1.5132   -1.6592    0.0004 C.2       1 <0>         0.0342
      8 C3         -2.7164   -1.0807    0.0006 C.2       1 <0>         0.0233
      9 C4         -3.7202    1.1780    0.0001 C.3       1 <0>         0.0137
     10 C5          0.8520   -1.0909   -0.0008 C.2       1 <0>         0.4214
     11 C6          3.1042   -0.3325   -0.0002 C.3       1 <0>         0.0915
     12 C7          3.8944    0.9586    0.0006 C.3       1 <0>        -0.0305
     13 H1         -1.2937   -2.7154    0.0002 H         1 <0>         0.0830
     14 H2         -3.6871   -1.5503    0.0007 H         1 <0>         0.0824
     15 H3         -4.3231    0.9812    0.8917 H         1 <0>         0.0456
     16 H4         -4.3183    0.9856   -0.8957 H         1 <0>         0.0456
     17 H5         -3.4117    2.2250    0.0034 H         1 <0>         0.0456
     18 H6          3.3487   -0.9166    0.8940 H         1 <0>         0.0695
     19 H7          3.3488   -0.9156   -0.8950 H         1 <0>         0.0695
     20 H8          4.9696    0.7594    0.0005 H         1 <0>         0.0262
     21 H9          3.6464    1.5626   -0.8785 H         1 <0>         0.0262
     22 H10         3.6464    1.5615    0.8804 H         1 <0>         0.0262
@<TRIPOS>BOND
     1    1    6 2
     2    2   10 1
     3    2   11 1
     4    3   10 2
     5    4    6 1
     6    4    8 2
     7    4    9 1
     8    5    6 1
     9    5    7 2
    10    5   10 am
    11    7    8 1
    12    7   13 1
    13    8   14 1
    14    9   15 1
    15    9   16 1
    16    9   17 1
    17   11   12 1
    18   11   18 1
    19   11   19 1
    20   12   20 1
    21   12   21 1
    22   12   22 1
