@<TRIPOS>MOLECULE
DB00544
   12    12     0     0     0
SMALL
USER_CHARGES

@<TRIPOS>ATOM
      1 F1         -2.6424   -0.6323   -0.0006 F         1 <0>        -0.1983
      2 O1         -1.7964    1.9550   -0.0007 O.2       1 <0>        -0.2646
      3 O2          2.6221    0.5706   -0.0013 O.2       1 <0>        -0.2467
      4 N1          0.4252    1.2874    0.0008 N.am      1 <0>        -0.2727
      5 N2          0.9393   -1.0031    0.0003 N.am      1 <0>        -0.3115
      6 C1         -0.9482    1.0691    0.0000 C.2       1 <0>         0.2894
      7 C2          1.4202    0.3012    0.0002 C.2       1 <0>         0.3269
      8 C3         -1.3258   -0.3573    0.0002 C.2       1 <0>         0.2033
      9 C4         -0.3945   -1.3091    0.0004 C.2       1 <0>         0.0470
     10 H1          0.7379    2.2542    0.0007 H         1 <0>         0.1735
     11 H2          1.6024   -1.7723   -0.0001 H         1 <0>         0.1699
     12 H3         -0.6398   -2.3635    0.0002 H         1 <0>         0.0839
@<TRIPOS>BOND
     1    1    8 1
     2    2    6 2
     3    3    7 2
     4    4    6 am
     5    4    7 am
     6    4   10 1
     7    5    7 am
     8    5    9 1
     9    5   11 1
    10    6    8 1
    11    8    9 2
    12    9   12 1
