@<TRIPOS>MOLECULE
DB00299
   33    34     0     0     0
SMALL
USER_CHARGES

@<TRIPOS>ATOM
      1 O1         -3.9129   -1.7152    1.1316 O.3       1 <0>        -0.3947
      2 O2         -3.6640    1.2311   -1.7839 O.3       1 <0>        -0.3947
      3 O3          5.3580    1.7627   -0.6224 O.2       1 <0>        -0.2633
      4 N1          1.0602    1.1933    0.5996 N.pl3     1 <0>        -0.3163
      5 N2          2.3104   -0.8243    0.0863 N.pl3     1 <0>        -0.3122
      6 N3          2.6858    2.6726    0.2291 N.2       1 <0>        -0.2286
      7 N4          4.5897   -0.4229   -0.5543 N.2       1 <0>        -0.1756
      8 N5          3.6914   -2.5993   -0.4468 N.pl3     1 <0>        -0.3289
      9 C1         -2.6470    0.0821    0.1058 C.3       1 <0>         0.0070
     10 C2         -1.2128    0.5488   -0.2425 C.3       1 <0>        -0.0279
     11 C3         -0.2567    0.6736    0.9499 C.3       1 <0>         0.0264
     12 C4         -2.5944   -1.2726    0.8338 C.3       1 <0>         0.0492
     13 C5         -3.5582   -0.0234   -1.1253 C.3       1 <0>         0.0492
     14 C6          2.1450    0.4930    0.2307 C.2       1 <0>         0.1462
     15 C7          3.1368    1.4023    0.0051 C.2       1 <0>         0.1720
     16 C8          1.4231    2.5114    0.5878 C.cat     1 <0>         0.0983
     17 C9          4.4532    0.9637   -0.4135 C.2       1 <0>         0.3021
     18 C10         3.5786   -1.2383   -0.3163 C.2       1 <0>         0.1952
     19 H1         -3.0903    0.8295    0.7774 H         1 <0>         0.0346
     20 H2         -1.2705    1.5224   -0.7461 H         1 <0>         0.0286
     21 H3         -0.7772   -0.1418   -0.9770 H         1 <0>         0.0286
     22 H4         -0.0889   -0.2930    1.4353 H         1 <0>         0.0493
     23 H5         -0.6756    1.3500    1.7043 H         1 <0>         0.0493
     24 H6         -2.1134   -2.0361    0.2139 H         1 <0>         0.0560
     25 H7         -2.0538   -1.2080    1.7819 H         1 <0>         0.0560
     26 H8         -4.5701   -0.3311   -0.8440 H         1 <0>         0.0560
     27 H9         -3.1600   -0.7527   -1.8391 H         1 <0>         0.0560
     28 H10         0.7380    3.3080    0.8445 H         1 <0>         0.1029
     29 H11         1.5740   -1.5034    0.2489 H         1 <0>         0.1700
     30 H12        -4.3272   -1.0401    1.6959 H         1 <0>         0.2094
     31 H13        -4.2430    1.1017   -2.5544 H         1 <0>         0.2094
     32 H14         2.9075   -3.2155   -0.2617 H         1 <0>         0.1451
     33 H15         4.5642   -3.0284   -0.7344 H         1 <0>         0.1451
@<TRIPOS>BOND
     1    1   12 1
     2    1   30 1
     3    2   13 1
     4    2   31 1
     5    3   17 2
     6    4   11 1
     7    4   14 1
     8    4   16 2
     9    5   14 2
    10    5   18 1
    11    5   29 1
    12    6   15 2
    13    6   16 1
    14    7   17 1
    15    7   18 2
    16    8   18 1
    17    8   32 1
    18    8   33 1
    19    9   10 1
    20    9   12 1
    21    9   13 1
    22    9   19 1
    23   10   11 1
    24   10   20 1
    25   10   21 1
    26   11   22 1
    27   11   23 1
    28   12   24 1
    29   12   25 1
    30   13   26 1
    31   13   27 1
    32   14   15 1
    33   15   17 1
    34   16   28 1
