@<TRIPOS>MOLECULE
DB00499
   30    30     0     0     0
SMALL
USER_CHARGES

@<TRIPOS>ATOM
      1 F1          3.3476   -2.8771    0.3828 F         1 <0>        -0.1656
      2 F2          4.6627   -1.7165   -0.8928 F         1 <0>        -0.1656
      3 F3          4.7028   -1.4210    1.2612 F         1 <0>        -0.1656
      4 O1         -1.9897    1.7125   -0.0854 O.2       1 <0>        -0.2752
      5 O2          4.7878    2.3918   -0.3361 O.3       1 <0>        -0.5760
      6 O3          5.4175    0.3044   -0.0807 O.2       1 <0>         0.0415
      7 N1         -0.8671   -0.3327    0.1589 N.am      1 <0>        -0.2853
      8 N2          4.5226    1.1775   -0.1719 N.pl3     1 <0>         0.0802
      9 C1         -3.2832   -0.3022    0.2148 C.3       1 <0>         0.0303
     10 C2          0.4950    0.0425    0.0764 C.ar      1 <0>         0.0343
     11 C3         -1.9828    0.4958    0.0792 C.2       1 <0>         0.2198
     12 C4          2.8162   -0.5622    0.0965 C.ar      1 <0>         0.1333
     13 C5          1.4737   -0.9322    0.1782 C.ar      1 <0>        -0.0223
     14 C6         -4.3768    0.5323    0.8785 C.3       1 <0>        -0.0544
     15 C7         -3.7451   -0.7897   -1.1572 C.3       1 <0>        -0.0544
     16 C8          3.1606    0.7772   -0.0857 C.ar      1 <0>         0.2849
     17 C9          0.8200    1.3763   -0.1045 C.ar      1 <0>        -0.0340
     18 C10         2.1624    1.7465   -0.1863 C.ar      1 <0>         0.0179
     19 C11         3.8613   -1.6250    0.2079 C.3       1 <0>         0.4237
     20 H1         -3.0988   -1.1744    0.8547 H         1 <0>         0.0389
     21 H2         -1.0303   -1.3291    0.2869 H         1 <0>         0.1548
     22 H3          1.1928   -1.9724    0.3199 H         1 <0>         0.0644
     23 H4         -4.0418    0.9040    1.8530 H         1 <0>         0.0237
     24 H5         -5.2811   -0.0647    1.0357 H         1 <0>         0.0237
     25 H6         -4.6460    1.4012    0.2679 H         1 <0>         0.0237
     26 H7         -4.6634   -1.3801   -1.0749 H         1 <0>         0.0237
     27 H8         -2.9796   -1.4178   -1.6256 H         1 <0>         0.0237
     28 H9         -3.9368    0.0515   -1.8326 H         1 <0>         0.0237
     29 H10         0.1085    2.1838   -0.1906 H         1 <0>         0.0638
     30 H11         2.3909    2.7998   -0.3283 H         1 <0>         0.0686
@<TRIPOS>BOND
     1    1   19 1
     2    2   19 1
     3    3   19 1
     4    4   11 2
     5    5    8 1
     6    6    8 2
     7    7   10 1
     8    7   11 am
     9    7   21 1
    10    8   16 1
    11    9   11 1
    12    9   14 1
    13    9   15 1
    14    9   20 1
    15   10   13 ar
    16   10   17 ar
    17   12   13 ar
    18   12   16 ar
    19   12   19 1
    20   13   22 1
    21   14   23 1
    22   14   24 1
    23   14   25 1
    24   15   26 1
    25   15   27 1
    26   15   28 1
    27   16   18 ar
    28   17   18 ar
    29   17   29 1
    30   18   30 1
