@<TRIPOS>MOLECULE
DB00376
   53    55     0     0     0
SMALL
USER_CHARGES

@<TRIPOS>ATOM
      1 O1          1.7957   -0.2362   -2.1426 O.3       1 <0>        -0.3836
      2 N1         -2.6036   -0.4141   -0.0941 N.3       1 <0>        -0.3022
      3 C1          1.7509    0.7041    0.0324 C.3       1 <0>        -0.0079
      4 C2          1.1923   -0.4156   -0.8438 C.3       1 <0>         0.0949
      5 C3          3.2827    0.6320    0.0930 C.3       1 <0>        -0.0473
      6 C4          1.2882    2.0748   -0.4794 C.3       1 <0>        -0.0473
      7 C5         -0.3436   -0.2654   -1.0371 C.3       1 <0>        -0.0068
      8 C6          3.8684    1.7738    0.9205 C.3       1 <0>        -0.0527
      9 C7          1.8775    3.2143    0.3489 C.3       1 <0>        -0.0527
     10 C8          3.3995    3.1342    0.4141 C.3       1 <0>        -0.0530
     11 C9         -1.1823   -0.5944    0.2010 C.3       1 <0>         0.0018
     12 C10         1.5580   -1.8352   -0.4019 C.ar      1 <0>        -0.0158
     13 C11        -2.8790    0.9815   -0.4632 C.3       1 <0>        -0.0011
     14 C12        -3.4234   -0.8325    1.0516 C.3       1 <0>        -0.0011
     15 C13        -4.3528    1.1767   -0.8229 C.3       1 <0>        -0.0402
     16 C14        -4.9148   -0.6965    0.7416 C.3       1 <0>        -0.0402
     17 C15        -5.2650    0.7236    0.3114 C.3       1 <0>        -0.0507
     18 C16         1.7594   -2.0759    0.9374 C.ar      1 <0>        -0.0558
     19 C17         1.6702   -2.8146   -1.3612 C.ar      1 <0>        -0.0558
     20 C18         2.0924   -3.3691    1.3402 C.ar      1 <0>        -0.0614
     21 C19         2.0031   -4.1079   -0.9584 C.ar      1 <0>        -0.0614
     22 C20         2.2141   -4.3851    0.3924 C.ar      1 <0>        -0.0617
     23 H1          1.3674    0.6220    1.0568 H         1 <0>         0.0332
     24 H2          3.7122    0.6921   -0.9151 H         1 <0>         0.0269
     25 H3          3.6398   -0.3068    0.5249 H         1 <0>         0.0269
     26 H4          0.2030    2.1895   -0.4054 H         1 <0>         0.0269
     27 H5          1.5704    2.2307   -1.5267 H         1 <0>         0.0269
     28 H6         -0.5502    0.7010   -1.4925 H         1 <0>         0.0309
     29 H7         -0.6467   -0.9695   -1.8289 H         1 <0>         0.0309
     30 H8          4.9630    1.7280    0.8896 H         1 <0>         0.0265
     31 H9          3.5734    1.6523    1.9701 H         1 <0>         0.0265
     32 H10         1.4671    3.1776    1.3657 H         1 <0>         0.0265
     33 H11         1.5777    4.1770   -0.0806 H         1 <0>         0.0265
     34 H12         3.7829    3.9241    1.0697 H         1 <0>         0.0265
     35 H13         3.8173    3.3159   -0.5838 H         1 <0>         0.0265
     36 H14        -0.8800    0.0319    1.0486 H         1 <0>         0.0427
     37 H15        -1.0169   -1.6395    0.4842 H         1 <0>         0.0427
     38 H16        -2.6025    1.6656    0.3500 H         1 <0>         0.0426
     39 H17        -2.3418    1.2987   -1.3584 H         1 <0>         0.0426
     40 H18        -3.2205   -1.8835    1.2908 H         1 <0>         0.0426
     41 H19        -3.1781   -0.2418    1.9442 H         1 <0>         0.0426
     42 H20         1.3077    0.4482   -2.6295 H         1 <0>         0.2106
     43 H21        -4.5893    0.6073   -1.7310 H         1 <0>         0.0278
     44 H22        -4.5433    2.2322   -1.0487 H         1 <0>         0.0278
     45 H23        -5.5030   -0.9705    1.6248 H         1 <0>         0.0278
     46 H24        -5.1898   -1.3982   -0.0562 H         1 <0>         0.0278
     47 H25        -5.1525    1.4030    1.1652 H         1 <0>         0.0266
     48 H26        -6.3125    0.7736   -0.0050 H         1 <0>         0.0266
     49 H27         1.6487   -1.3248    1.7097 H         1 <0>         0.0621
     50 H28         1.4939   -2.6284   -2.4157 H         1 <0>         0.0621
     51 H29         2.2504   -3.5870    2.3925 H         1 <0>         0.0618
     52 H30         2.0936   -4.9002   -1.6956 H         1 <0>         0.0618
     53 H31         2.4709   -5.3926    0.7063 H         1 <0>         0.0618
@<TRIPOS>BOND
     1    1    4 1
     2    1   42 1
     3    2   11 1
     4    2   13 1
     5    2   14 1
     6    3    4 1
     7    3    5 1
     8    3    6 1
     9    3   23 1
    10    4    7 1
    11    4   12 1
    12    5    8 1
    13    5   24 1
    14    5   25 1
    15    6    9 1
    16    6   26 1
    17    6   27 1
    18    7   11 1
    19    7   28 1
    20    7   29 1
    21    8   10 1
    22    8   30 1
    23    8   31 1
    24    9   10 1
    25    9   32 1
    26    9   33 1
    27   10   34 1
    28   10   35 1
    29   11   36 1
    30   11   37 1
    31   12   18 ar
    32   12   19 ar
    33   13   15 1
    34   13   38 1
    35   13   39 1
    36   14   16 1
    37   14   40 1
    38   14   41 1
    39   15   17 1
    40   15   43 1
    41   15   44 1
    42   16   17 1
    43   16   45 1
    44   16   46 1
    45   17   47 1
    46   17   48 1
    47   18   20 ar
    48   18   49 1
    49   19   21 ar
    50   19   50 1
    51   20   22 ar
    52   20   51 1
    53   21   22 ar
    54   21   52 1
    55   22   53 1
