@<TRIPOS>MOLECULE
DB00924
   42    44     0     0     0
SMALL
USER_CHARGES

@<TRIPOS>ATOM
      1 N1          2.8255   -1.3376   -0.5234 N.3       1 <0>        -0.3081
      2 C1         -0.6956   -0.0873    0.6810 C.2       1 <0>        -0.0135
      3 C2         -1.9365   -0.8521    0.4232 C.ar      1 <0>        -0.0105
      4 C3         -0.6114    1.3811    0.5120 C.ar      1 <0>        -0.0105
      5 C4          1.7354   -0.1079    1.2951 C.3       1 <0>        -0.0211
      6 C5          0.4211   -0.7632    1.0110 C.2       1 <0>        -0.0745
      7 C6          2.8978   -1.0169    0.8977 C.3       1 <0>         0.0018
      8 C7         -2.6314   -0.7228   -0.7946 C.ar      1 <0>        -0.0173
      9 C8         -1.0158    2.0000   -0.6863 C.ar      1 <0>        -0.0173
     10 C9         -2.1682    0.1094   -1.9186 C.2       1 <0>        -0.0534
     11 C10        -1.4838    1.2628   -1.8728 C.2       1 <0>        -0.0534
     12 C11        -2.4491   -1.6980    1.4247 C.ar      1 <0>        -0.0535
     13 C12        -0.1506    2.1753    1.5790 C.ar      1 <0>        -0.0535
     14 C13        -3.8019   -1.4771   -0.9927 C.ar      1 <0>        -0.0540
     15 C14        -0.9098    3.3979   -0.7983 C.ar      1 <0>        -0.0540
     16 C15        -3.6192   -2.4263    1.2155 C.ar      1 <0>        -0.0611
     17 C16        -0.0672    3.5611    1.4541 C.ar      1 <0>        -0.0611
     18 C17        -4.2936   -2.3186    0.0056 C.ar      1 <0>        -0.0612
     19 C18        -0.4432    4.1723    0.2642 C.ar      1 <0>        -0.0612
     20 C19         3.9142   -2.2392   -0.9038 C.3       1 <0>        -0.0130
     21 C20         2.8716   -0.1169   -1.3300 C.3       1 <0>        -0.0130
     22 H1          1.8085    0.0405    2.3806 H         1 <0>         0.0320
     23 H2          1.8788    0.8729    0.8375 H         1 <0>         0.0320
     24 H3          0.3812   -1.8448    1.1320 H         1 <0>         0.0579
     25 H4          3.8462   -0.5252    1.1517 H         1 <0>         0.0429
     26 H5          2.8499   -1.9402    1.4903 H         1 <0>         0.0429
     27 H6         -2.4485   -0.2580   -2.9051 H         1 <0>         0.0624
     28 H7         -1.2615    1.7419   -2.8256 H         1 <0>         0.0624
     29 H8         -1.9420   -1.7950    2.3825 H         1 <0>         0.0624
     30 H9          0.1169    1.7322    2.5357 H         1 <0>         0.0624
     31 H10        -4.3500   -1.4127   -1.9309 H         1 <0>         0.0624
     32 H11        -1.1969    3.9028   -1.7191 H         1 <0>         0.0624
     33 H12        -4.0015   -3.0766    1.9966 H         1 <0>         0.0618
     34 H13         0.2854    4.1618    2.2873 H         1 <0>         0.0618
     35 H14        -5.2029   -2.8878   -0.1634 H         1 <0>         0.0618
     36 H15        -0.3766    5.2514    0.1613 H         1 <0>         0.0618
     37 H16         3.8658   -3.1672   -0.3233 H         1 <0>         0.0391
     38 H17         4.8999   -1.7857   -0.7488 H         1 <0>         0.0391
     39 H18         3.8271   -2.5259   -1.9577 H         1 <0>         0.0391
     40 H19         3.7223    0.5240   -1.0705 H         1 <0>         0.0391
     41 H20         1.9486    0.4652   -1.2597 H         1 <0>         0.0391
     42 H21         2.9612   -0.3693   -2.3938 H         1 <0>         0.0391
@<TRIPOS>BOND
     1    1    7 1
     2    1   20 1
     3    1   21 1
     4    2    3 1
     5    2    4 1
     6    2    6 2
     7    3    8 ar
     8    3   12 ar
     9    4    9 ar
    10    4   13 ar
    11    5    6 1
    12    5    7 1
    13    5   22 1
    14    5   23 1
    15    6   24 1
    16    7   25 1
    17    7   26 1
    18    8   10 1
    19    8   14 ar
    20    9   11 1
    21    9   15 ar
    22   10   11 2
    23   10   27 1
    24   11   28 1
    25   12   16 ar
    26   12   29 1
    27   13   17 ar
    28   13   30 1
    29   14   18 ar
    30   14   31 1
    31   15   19 ar
    32   15   32 1
    33   16   18 ar
    34   16   33 1
    35   17   19 ar
    36   17   34 1
    37   18   35 1
    38   19   36 1
    39   20   37 1
    40   20   38 1
    41   20   39 1
    42   21   40 1
    43   21   41 1
    44   21   42 1
