@<TRIPOS>MOLECULE
DB00636
   31    31     0     0     0
SMALL
USER_CHARGES

@<TRIPOS>ATOM
      1 Cl1         4.4863    3.1168   -0.5180 Cl        1 <0>        -0.0835
      2 O1          0.5159   -0.8862    1.1204 O.3       1 <0>        -0.4750
      3 O2         -1.8949    0.1178    0.0191 O.3       1 <0>        -0.4622
      4 O3         -0.7916   -0.3447   -1.9488 O.2       1 <0>        -0.2463
      5 C1         -0.1953   -1.5460    0.0819 C.3       1 <0>         0.2005
      6 C2          0.8136   -2.2970   -0.7856 C.3       1 <0>        -0.0145
      7 C3         -1.1851   -2.5112    0.7265 C.3       1 <0>        -0.0145
      8 C4         -0.9678   -0.5256   -0.7497 C.2       1 <0>         0.3508
      9 C5          1.4428    0.0484    0.7382 C.ar      1 <0>         0.1222
     10 C6         -2.7100    1.0747   -0.6651 C.3       1 <0>         0.0898
     11 C7          1.0580    1.3751    0.5833 C.ar      1 <0>        -0.0185
     12 C8          2.7573   -0.3406    0.5087 C.ar      1 <0>        -0.0185
     13 C9          2.0011    2.3260    0.1933 C.ar      1 <0>        -0.0399
     14 C10         3.7003    0.6103    0.1187 C.ar      1 <0>        -0.0399
     15 C11        -3.6777    1.6930    0.3211 C.3       1 <0>        -0.0306
     16 C12         3.3222    1.9436   -0.0389 C.ar      1 <0>         0.0412
     17 H1          0.2935   -2.9576   -1.4903 H         1 <0>         0.0273
     18 H2          1.4337   -1.6361   -1.4004 H         1 <0>         0.0273
     19 H3          1.4783   -2.9224   -0.1793 H         1 <0>         0.0273
     20 H4         -1.8239   -2.9950   -0.0201 H         1 <0>         0.0273
     21 H5         -0.6562   -3.2906    1.2873 H         1 <0>         0.0273
     22 H6         -1.8316   -2.0026    1.4511 H         1 <0>         0.0273
     23 H7         -2.0731    1.8544   -1.0976 H         1 <0>         0.0694
     24 H8         -3.2666    0.5740   -1.4653 H         1 <0>         0.0694
     25 H9          0.0413    1.6945    0.7876 H         1 <0>         0.0654
     26 H10         3.0714   -1.3702    0.6513 H         1 <0>         0.0654
     27 H11         1.6935    3.3625    0.0805 H         1 <0>         0.0633
     28 H12         4.7274    0.2989   -0.0534 H         1 <0>         0.0633
     29 H13        -4.3183    2.4311   -0.1696 H         1 <0>         0.0262
     30 H14        -4.3091    0.9227    0.7759 H         1 <0>         0.0262
     31 H15        -3.1354    2.1821    1.1370 H         1 <0>         0.0262
@<TRIPOS>BOND
     1    1   16 1
     2    2    5 1
     3    2    9 1
     4    3    8 1
     5    3   10 1
     6    4    8 2
     7    5    6 1
     8    5    7 1
     9    5    8 1
    10    6   17 1
    11    6   18 1
    12    6   19 1
    13    7   20 1
    14    7   21 1
    15    7   22 1
    16    9   11 ar
    17    9   12 ar
    18   10   15 1
    19   10   23 1
    20   10   24 1
    21   11   13 ar
    22   11   25 1
    23   12   14 ar
    24   12   26 1
    25   13   16 ar
    26   13   27 1
    27   14   16 ar
    28   14   28 1
    29   15   29 1
    30   15   30 1
    31   15   31 1
