@<TRIPOS>MOLECULE
DB00990
   46    49     0     0     0
SMALL
USER_CHARGES

@<TRIPOS>ATOM
      1 O1          4.6802   -1.3347    0.9841 O.2       1 <0>        -0.2968
      2 O2         -5.5573   -0.1907    1.7986 O.2       1 <0>        -0.2879
      3 C1          1.7632    0.4975    0.5356 C.3       1 <0>        -0.0251
      4 C2          0.3756    0.6127   -0.1003 C.3       1 <0>        -0.0294
      5 C3          2.5162   -0.7523    0.0369 C.3       1 <0>         0.0293
      6 C4         -0.4629   -0.6468    0.3155 C.3       1 <0>        -0.0247
      7 C5          1.7545   -1.9797    0.5240 C.3       1 <0>        -0.0404
      8 C6          0.3013   -1.9684    0.0128 C.3       1 <0>        -0.0480
      9 C7         -1.9282   -0.5840   -0.2613 C.3       1 <0>         0.0147
     10 C8          2.7715    1.6299    0.3754 C.3       1 <0>        -0.0424
     11 C9         -0.3392    1.9056    0.3218 C.3       1 <0>        -0.0245
     12 C10         3.8561   -0.4773    0.6956 C.2       1 <0>         0.1395
     13 C11         4.0658    1.0105    0.9230 C.3       1 <0>         0.0067
     14 C12         2.7790   -0.8217   -1.4789 C.3       1 <0>        -0.0526
     15 C13        -2.5492    0.7631    0.1354 C.2       1 <0>        -0.0312
     16 C14        -1.7550    1.9451   -0.1887 C.2       1 <0>        -0.0500
     17 C15        -1.9609   -0.7098   -1.8035 C.3       1 <0>        -0.0518
     18 C16        -2.7557   -1.7468    0.2687 C.2       1 <0>        -0.0699
     19 C17        -3.7087    0.8830    0.8032 C.2       1 <0>        -0.0107
     20 C18        -3.9099   -1.6333    0.9333 C.2       1 <0>        -0.0180
     21 C19        -2.2365    2.9769   -0.8991 C.2       1 <0>        -0.0952
     22 C20        -4.4816   -0.3054    1.2206 C.2       1 <0>         0.1790
     23 H1          1.6032    0.4000    1.6238 H         1 <0>         0.0313
     24 H2          0.4837    0.6370   -1.1905 H         1 <0>         0.0310
     25 H3         -0.5566   -0.6102    1.4139 H         1 <0>         0.0315
     26 H4          1.7515   -2.0138    1.6215 H         1 <0>         0.0275
     27 H5          2.2527   -2.9006    0.1969 H         1 <0>         0.0275
     28 H6          0.3047   -2.1626   -1.0645 H         1 <0>         0.0269
     29 H7         -0.2146   -2.8154    0.4780 H         1 <0>         0.0269
     30 H8          2.4946    2.5241    0.9425 H         1 <0>         0.0272
     31 H9          2.8876    1.9232   -0.6735 H         1 <0>         0.0272
     32 H10         0.2245    2.7721   -0.0453 H         1 <0>         0.0316
     33 H11        -0.3559    1.9863    1.4170 H         1 <0>         0.0316
     34 H12         4.1659    1.1928    1.9969 H         1 <0>         0.0342
     35 H13         4.9440    1.3702    0.3828 H         1 <0>         0.0342
     36 H14         3.3474   -1.7275   -1.7229 H         1 <0>         0.0239
     37 H15         1.8596   -0.8468   -2.0695 H         1 <0>         0.0239
     38 H16         3.3770    0.0225   -1.8385 H         1 <0>         0.0239
     39 H17        -1.6047   -1.6892   -2.1422 H         1 <0>         0.0241
     40 H18        -2.9833   -0.5955   -2.1872 H         1 <0>         0.0241
     41 H19        -1.3495    0.0487   -2.3021 H         1 <0>         0.0241
     42 H20        -2.4041   -2.7545    0.0595 H         1 <0>         0.0582
     43 H21        -4.1148    1.8481    1.0902 H         1 <0>         0.0659
     44 H22        -4.4588   -2.5078    1.2629 H         1 <0>         0.0653
     45 H23        -1.6171    3.8379   -1.1284 H         1 <0>         0.0538
     46 H24        -3.2549    2.9877   -1.2743 H         1 <0>         0.0538
@<TRIPOS>BOND
     1    1   12 2
     2    2   22 2
     3    3    4 1
     4    3    5 1
     5    3   10 1
     6    3   23 1
     7    4    6 1
     8    4   11 1
     9    4   24 1
    10    5    7 1
    11    5   12 1
    12    5   14 1
    13    6    8 1
    14    6    9 1
    15    6   25 1
    16    7    8 1
    17    7   26 1
    18    7   27 1
    19    8   28 1
    20    8   29 1
    21    9   15 1
    22    9   17 1
    23    9   18 1
    24   10   13 1
    25   10   30 1
    26   10   31 1
    27   11   16 1
    28   11   32 1
    29   11   33 1
    30   12   13 1
    31   13   34 1
    32   13   35 1
    33   14   36 1
    34   14   37 1
    35   14   38 1
    36   15   16 1
    37   15   19 2
    38   16   21 2
    39   17   39 1
    40   17   40 1
    41   17   41 1
    42   18   20 2
    43   18   42 1
    44   19   22 1
    45   19   43 1
    46   20   22 1
    47   20   44 1
    48   21   45 1
    49   21   46 1
