@<TRIPOS>MOLECULE
DB00493
   47    49     0     0     0
SMALL
USER_CHARGES

@<TRIPOS>ATOM
      1 S1         -0.6932   -0.8777    1.4719 S.3       1 <0>        -0.1310
      2 S2          3.8699    3.6299   -0.3425 S.3       1 <0>        -0.0604
      3 O1          0.1923   -0.3740   -3.0642 O.2       1 <0>        -0.2731
      4 O2         -5.2245    0.1355    0.7626 O.3       1 <0>        -0.4603
      5 O3         -2.9468    0.0706   -3.2129 O.3       1 <0>        -0.4763
      6 O4         -2.6726    2.1267   -2.2501 O.2       1 <0>        -0.2437
      7 O5          3.1738   -1.1791   -2.2121 O.2       1 <0>        -0.2683
      8 O6          4.5940   -2.4481    0.2424 O.3       1 <0>        -0.3964
      9 O7         -6.7396    1.8785    0.8184 O.2       1 <0>        -0.2512
     10 N1         -1.1373   -0.6402   -1.1350 N.am      1 <0>        -0.2489
     11 N2          1.7778   -1.1559   -0.3251 N.am      1 <0>        -0.2963
     12 N3          4.8707   -1.0885    0.4427 N.2       1 <0>        -0.0779
     13 N4          5.2023    1.6649    0.6807 N.2       1 <0>        -0.2233
     14 N5          5.9775    3.8201    1.2679 N.pl3     1 <0>        -0.3375
     15 C1         -0.7561   -1.6477   -0.1620 C.3       1 <0>         0.1042
     16 C2          0.5816   -1.7431   -0.9279 C.3       1 <0>         0.1286
     17 C3         -0.0998   -0.8227   -1.9803 C.2       1 <0>         0.2440
     18 C4         -2.2456    0.1363   -1.0227 C.2       1 <0>         0.1252
     19 C5         -2.9234    0.2368    0.1455 C.2       1 <0>         0.0056
     20 C6         -2.4587   -0.4166    1.4452 C.3       1 <0>         0.0220
     21 C7         -4.2061    1.0119    0.3284 C.3       1 <0>         0.1166
     22 C8         -2.6385    0.9134   -2.2077 C.2       1 <0>         0.3515
     23 C9          2.9444   -0.9390   -1.0378 C.2       1 <0>         0.2684
     24 C10         4.0394   -0.3272   -0.2028 C.2       1 <0>         0.1897
     25 C11         4.1907    1.1272   -0.0909 C.2       1 <0>         0.1067
     26 C12        -6.4576    0.6981    0.9738 C.2       1 <0>         0.3043
     27 C13         3.3670    2.0349   -0.7228 C.2       1 <0>         0.0067
     28 C14        -7.4329   -0.3450    1.4285 C.3       1 <0>         0.0332
     29 C15         5.1299    2.9763    0.6219 C.2       1 <0>         0.1562
     30 C16         5.5432   -3.2041    0.9783 C.3       1 <0>         0.1072
     31 H1         -1.3693   -2.5546   -0.2243 H         1 <0>         0.0644
     32 H2          0.7848   -2.7499   -1.3118 H         1 <0>         0.0622
     33 H3         -3.0580   -1.3124    1.6410 H         1 <0>         0.0424
     34 H4         -2.6057    0.2744    2.2821 H         1 <0>         0.0424
     35 H5          1.7682   -0.8944    0.6580 H         1 <0>         0.1499
     36 H6         -4.0478    1.7993    1.0759 H         1 <0>         0.0746
     37 H7         -4.5335    1.4930   -0.5982 H         1 <0>         0.0746
     38 H8         -3.2155    0.5485   -4.0263 H         1 <0>         0.2954
     39 H9          2.5191    1.8582   -1.3697 H         1 <0>         0.0716
     40 H10        -7.5392   -1.1126    0.6580 H         1 <0>         0.0342
     41 H11        -8.4091    0.1191    1.5965 H         1 <0>         0.0342
     42 H12        -7.0906   -0.7868    2.3677 H         1 <0>         0.0342
     43 H13         5.3331   -4.2661    0.8264 H         1 <0>         0.0687
     44 H14         5.4632   -2.9793    2.0465 H         1 <0>         0.0687
     45 H15         6.5565   -2.9921    0.6233 H         1 <0>         0.0687
     46 H16         5.8865    4.8281    1.1955 H         1 <0>         0.1442
     47 H17         6.7356    3.4756    1.8477 H         1 <0>         0.1442
@<TRIPOS>BOND
     1    1   15 1
     2    1   20 1
     3    2   27 1
     4    2   29 1
     5    3   17 2
     6    4   21 1
     7    4   26 1
     8    5   22 1
     9    5   38 1
    10    6   22 2
    11    7   23 2
    12    8   12 1
    13    8   30 1
    14    9   26 2
    15   10   15 1
    16   10   17 am
    17   10   18 1
    18   11   16 1
    19   11   23 am
    20   11   35 1
    21   12   24 2
    22   13   25 1
    23   13   29 2
    24   14   29 1
    25   14   46 1
    26   14   47 1
    27   15   16 1
    28   15   31 1
    29   16   17 1
    30   16   32 1
    31   18   19 2
    32   18   22 1
    33   19   20 1
    34   19   21 1
    35   20   33 1
    36   20   34 1
    37   21   36 1
    38   21   37 1
    39   23   24 1
    40   24   25 1
    41   25   27 2
    42   26   28 1
    43   27   39 1
    44   28   40 1
    45   28   41 1
    46   28   42 1
    47   30   43 1
    48   30   44 1
    49   30   45 1
