@<TRIPOS>MOLECULE
DB00369
   32    32     0     0     0
SMALL
USER_CHARGES

@<TRIPOS>ATOM
      1 P1          2.5811    2.2083    0.2797 P.3       1 <0>         0.3531
      2 O1          1.1715    0.1293   -0.0991 O.3       1 <0>        -0.3604
      3 O2          1.6510   -3.4629    0.2136 O.3       1 <0>        -0.3924
      4 O3          3.0927    2.1401   -1.2519 O.3       1 <0>        -0.3225
      5 O4          3.9251    2.5613    1.1049 O.3       1 <0>        -0.3225
      6 O5          1.4239    3.1297    0.5267 O.2       1 <0>        -0.2564
      7 O6         -0.9217    0.8144   -2.1143 O.2       1 <0>        -0.2444
      8 N1         -1.5571   -0.7149   -0.5097 N.am      1 <0>        -0.2965
      9 N2         -2.8451    1.2444   -0.9887 N.2       1 <0>        -0.1784
     10 N3         -4.8141    1.6800    0.1697 N.pl3     1 <0>        -0.3430
     11 C1          0.7888   -1.2244    0.1475 C.3       1 <0>         0.1004
     12 C2         -0.4077   -1.5857   -0.7306 C.3       1 <0>         0.0560
     13 C3          2.0018   -2.1171   -0.0937 C.3       1 <0>         0.0721
     14 C4          2.2825    0.5040    0.6994 C.3       1 <0>         0.1489
     15 C5         -2.4696   -1.0857    0.4509 C.2       1 <0>         0.0127
     16 C6         -1.7303    0.4668   -1.2516 C.2       1 <0>         0.3502
     17 C7         -3.5473   -0.3511    0.7195 C.2       1 <0>        -0.0057
     18 C8         -3.7129    0.8930   -0.0762 C.2       1 <0>         0.1230
     19 H1          0.4761   -1.3126    1.1969 H         1 <0>         0.0637
     20 H2         -0.1173   -1.4898   -1.7843 H         1 <0>         0.0519
     21 H3         -0.7121   -2.6288   -0.5807 H         1 <0>         0.0519
     22 H4          2.8484   -1.8990    0.5580 H         1 <0>         0.0583
     23 H5          2.3413   -2.0581   -1.1334 H         1 <0>         0.0583
     24 H6          2.0610    0.3925    1.7650 H         1 <0>         0.0687
     25 H7          3.2033   -0.0157    0.4310 H         1 <0>         0.0687
     26 H8         -2.2747   -2.0060    0.9902 H         1 <0>         0.0811
     27 H9         -4.2757   -0.6231    1.4717 H         1 <0>         0.0666
     28 H10         2.4313   -4.0119    0.0254 H         1 <0>         0.2095
     29 H11         3.2962    2.9764   -1.7223 H         1 <0>         0.2198
     30 H12         4.2811    3.4743    1.0647 H         1 <0>         0.2198
     31 H13        -5.5048    1.4346    0.8713 H         1 <0>         0.1437
     32 H14        -4.9669    2.5381   -0.3493 H         1 <0>         0.1437
@<TRIPOS>BOND
     1    1    4 1
     2    1    5 1
     3    1    6 2
     4    1   14 1
     5    2   11 1
     6    2   14 1
     7    3   13 1
     8    3   28 1
     9    4   29 1
    10    5   30 1
    11    7   16 2
    12    8   12 1
    13    8   15 1
    14    8   16 am
    15    9   16 1
    16    9   18 2
    17   10   18 1
    18   10   31 1
    19   10   32 1
    20   11   12 1
    21   11   13 1
    22   11   19 1
    23   12   20 1
    24   12   21 1
    25   13   22 1
    26   13   23 1
    27   14   24 1
    28   14   25 1
    29   15   17 2
    30   15   26 1
    31   17   18 1
    32   17   27 1
