@<TRIPOS>MOLECULE
DB00341
   52    54     0     0     0
SMALL
USER_CHARGES

@<TRIPOS>ATOM
      1 Cl1         6.1832   -4.1607    0.9808 Cl        1 <0>        -0.0835
      2 O1         -5.5050   -0.4797    0.2935 O.3       1 <0>        -0.3674
      3 O2         -8.8155    0.8318   -0.0971 O.3       1 <0>        -0.4790
      4 O3         -8.0375   -0.8585    1.2164 O.2       1 <0>        -0.2484
      5 N1          0.9265   -0.1601   -0.0209 N.3       1 <0>        -0.2891
      6 N2         -1.8743   -0.8500   -0.2169 N.3       1 <0>        -0.2977
      7 C1          0.4978   -1.5388   -0.2865 C.3       1 <0>         0.0126
      8 C2         -0.0580    0.7928   -0.5481 C.3       1 <0>         0.0126
      9 C3         -0.8893   -1.8028    0.3095 C.3       1 <0>         0.0118
     10 C4         -1.4455    0.5291    0.0467 C.3       1 <0>         0.0118
     11 C5          2.2488    0.0912   -0.5903 C.3       1 <0>         0.0610
     12 C6         -3.1959   -1.1010    0.3545 C.3       1 <0>         0.0225
     13 C7          3.2455   -0.9870   -0.1915 C.ar      1 <0>        -0.0258
     14 C8          2.7672    1.4876   -0.2793 C.ar      1 <0>        -0.0259
     15 C9         -4.2360   -0.1901   -0.2781 C.3       1 <0>         0.0611
     16 C10         3.9836   -0.8198    0.9624 C.ar      1 <0>        -0.0554
     17 C11         3.3825   -2.0998   -0.9963 C.ar      1 <0>        -0.0554
     18 C12         3.6140    2.1009   -1.1801 C.ar      1 <0>        -0.0568
     19 C13         2.3749    2.0993    0.8940 C.ar      1 <0>        -0.0568
     20 C14         4.8981   -1.8078    1.3274 C.ar      1 <0>        -0.0431
     21 C15         4.2969   -3.0880   -0.6313 C.ar      1 <0>        -0.0431
     22 C16         4.0891    3.3812   -0.8953 C.ar      1 <0>        -0.0614
     23 C17         2.8501    3.3795    1.1787 C.ar      1 <0>        -0.0614
     24 C18         5.0547   -2.9419    0.5307 C.ar      1 <0>         0.0410
     25 C19         3.7071    4.0203    0.2840 C.ar      1 <0>        -0.0617
     26 C20        -6.5214    0.3562   -0.2430 C.3       1 <0>         0.1443
     27 C21        -7.8440    0.0176    0.3869 C.2       1 <0>         0.3308
     28 H1          1.1438   -2.2711    0.2068 H         1 <0>         0.0439
     29 H2          0.4750   -1.7537   -1.3633 H         1 <0>         0.0439
     30 H3          0.1812    1.8360   -0.3247 H         1 <0>         0.0439
     31 H4         -0.1182    0.7158   -1.6434 H         1 <0>         0.0439
     32 H5         -1.1878   -2.8258    0.0492 H         1 <0>         0.0439
     33 H6         -0.8380   -1.7461    1.4056 H         1 <0>         0.0439
     34 H7         -1.4355    0.7428    1.1241 H         1 <0>         0.0439
     35 H8         -2.1074    1.2563   -0.4320 H         1 <0>         0.0439
     36 H9          2.1538    0.0463   -1.6877 H         1 <0>         0.0562
     37 H10        -3.4954   -2.1413    0.1721 H         1 <0>         0.0449
     38 H11        -3.2006   -0.9721    1.4453 H         1 <0>         0.0449
     39 H12        -4.0338    0.8659   -0.0796 H         1 <0>         0.0573
     40 H13        -4.2777   -0.3494   -1.3625 H         1 <0>         0.0573
     41 H14         3.8785    0.0315    1.6240 H         1 <0>         0.0621
     42 H15         2.8117   -2.2207   -1.9120 H         1 <0>         0.0621
     43 H16         3.9182    1.6107   -2.1000 H         1 <0>         0.0621
     44 H17         1.7318    1.6195    1.6255 H         1 <0>         0.0621
     45 H18         5.4784   -1.6834    2.2381 H         1 <0>         0.0632
     46 H19         4.4108   -3.9648   -1.2637 H         1 <0>         0.0632
     47 H20         4.7572    3.8799   -1.5914 H         1 <0>         0.0618
     48 H21         2.5581    3.8750    2.1000 H         1 <0>         0.0618
     49 H22         4.0783    5.0165    0.5066 H         1 <0>         0.0618
     50 H23        -6.5986    0.1946   -1.3234 H         1 <0>         0.0676
     51 H24        -6.2904    1.4039   -0.0226 H         1 <0>         0.0676
     52 H25        -9.6909    0.6324    0.2984 H         1 <0>         0.2951
@<TRIPOS>BOND
     1    1   24 1
     2    2   15 1
     3    2   26 1
     4    3   27 1
     5    3   52 1
     6    4   27 2
     7    5    7 1
     8    5    8 1
     9    5   11 1
    10    6    9 1
    11    6   10 1
    12    6   12 1
    13    7    9 1
    14    7   28 1
    15    7   29 1
    16    8   10 1
    17    8   30 1
    18    8   31 1
    19    9   32 1
    20    9   33 1
    21   10   34 1
    22   10   35 1
    23   11   13 1
    24   11   14 1
    25   11   36 1
    26   12   15 1
    27   12   37 1
    28   12   38 1
    29   13   16 ar
    30   13   17 ar
    31   14   18 ar
    32   14   19 ar
    33   15   39 1
    34   15   40 1
    35   16   20 ar
    36   16   41 1
    37   17   21 ar
    38   17   42 1
    39   18   22 ar
    40   18   43 1
    41   19   23 ar
    42   19   44 1
    43   20   24 ar
    44   20   45 1
    45   21   24 ar
    46   21   46 1
    47   22   25 ar
    48   22   47 1
    49   23   25 ar
    50   23   48 1
    51   25   49 1
    52   26   27 1
    53   26   50 1
    54   26   51 1
