@<TRIPOS>MOLECULE
DB00305
   42    45     0     0     0
SMALL
USER_CHARGES

@<TRIPOS>ATOM
      1 O1         -1.3884   -1.3488    1.9547 O.3       1 <0>        -0.3568
      2 O2         -2.7060    1.3457   -0.2578 O.3       1 <0>        -0.4498
      3 O3          3.1021   -2.2125   -0.1505 O.2       1 <0>        -0.2856
      4 O4          1.3826    2.7776    0.7131 O.2       1 <0>        -0.2856
      5 O5         -3.0351    2.6737   -2.1093 O.2       1 <0>        -0.2267
      6 N1         -1.7170   -1.5708   -1.7904 N.3       1 <0>        -0.3022
      7 N2          0.2811   -1.6503    0.2918 N.pl3     1 <0>        -0.2954
      8 N3          4.0307    2.4879    0.2191 N.pl3     1 <0>        -0.3547
      9 N4         -4.8075    1.9479   -0.8370 N.am      1 <0>        -0.2950
     10 C1         -1.9735   -1.5329   -0.3527 C.3       1 <0>         0.0719
     11 C2         -0.9921   -0.9765    0.6343 C.3       1 <0>         0.1630
     12 C3         -1.3314   -2.7230   -0.9945 C.3       1 <0>         0.0435
     13 C4          0.0891   -2.8444   -0.5210 C.3       1 <0>         0.0320
     14 C5         -0.6293    0.5441    0.6095 C.3       1 <0>         0.0714
     15 C6          1.3100   -0.7405    0.2483 C.2       1 <0>         0.0870
     16 C7          0.8772    0.5039    0.4458 C.2       1 <0>         0.0366
     17 C8         -1.3074    1.3699   -0.4787 C.3       1 <0>         0.1053
     18 C9          2.7200   -1.0587    0.0109 C.2       1 <0>         0.2050
     19 C10         1.7931    1.6457    0.4767 C.2       1 <0>         0.2054
     20 C11        -2.5200   -0.6070    2.3812 C.3       1 <0>         0.0391
     21 C12         3.6694    0.1037   -0.0094 C.2       1 <0>         0.0224
     22 C13         3.2454    1.3676    0.2097 C.2       1 <0>         0.0789
     23 C14         5.0995   -0.2795   -0.2840 C.3       1 <0>        -0.0341
     24 C15        -3.4749    2.0445   -1.1527 C.2       1 <0>         0.3977
     25 H1         -3.0079   -1.6057   -0.0589 H         1 <0>         0.0522
     26 H2         -1.8781   -3.6412   -1.1316 H         1 <0>         0.0493
     27 H3         -0.8920   -1.0261   -2.0352 H         1 <0>         0.1228
     28 H4          0.2153   -3.7392    0.0962 H         1 <0>         0.0480
     29 H5          0.7785   -2.8902   -1.3704 H         1 <0>         0.0480
     30 H6         -0.8215    1.0254    1.5734 H         1 <0>         0.0429
     31 H7         -1.0653    1.0130   -1.4846 H         1 <0>         0.0706
     32 H8         -0.9678    2.4110   -0.4151 H         1 <0>         0.0706
     33 H9         -3.2380   -0.3600    1.5973 H         1 <0>         0.0524
     34 H10        -2.2112    0.3007    2.9071 H         1 <0>         0.0524
     35 H11        -3.0474   -1.2209    3.1187 H         1 <0>         0.0524
     36 H12         5.7835    0.5719   -0.3102 H         1 <0>         0.0279
     37 H13         5.1760   -0.7835   -1.2536 H         1 <0>         0.0279
     38 H14         5.4631   -0.9630    0.4910 H         1 <0>         0.0279
     39 H15         5.0261    2.4286    0.0543 H         1 <0>         0.1424
     40 H16         3.6097    3.3918    0.3955 H         1 <0>         0.1424
     41 H17        -5.1223    1.4137   -0.0339 H         1 <0>         0.1482
     42 H18        -5.5181    2.4065   -1.3971 H         1 <0>         0.1482
@<TRIPOS>BOND
     1    1   11 1
     2    1   20 1
     3    2   17 1
     4    2   24 1
     5    3   18 2
     6    4   19 2
     7    5   24 2
     8    6   10 1
     9    6   12 1
    10    6   27 1
    11    7   11 1
    12    7   13 1
    13    7   15 1
    14    8   22 1
    15    8   39 1
    16    8   40 1
    17    9   24 am
    18    9   41 1
    19    9   42 1
    20   10   11 1
    21   10   12 1
    22   10   25 1
    23   11   14 1
    24   12   13 1
    25   12   26 1
    26   13   28 1
    27   13   29 1
    28   14   16 1
    29   14   17 1
    30   14   30 1
    31   15   16 2
    32   15   18 1
    33   16   19 1
    34   17   31 1
    35   17   32 1
    36   18   21 1
    37   19   22 1
    38   20   33 1
    39   20   34 1
    40   20   35 1
    41   21   22 2
    42   21   23 1
    43   23   36 1
    44   23   37 1
    45   23   38 1
