@<TRIPOS>MOLECULE
DB00527
   54    55     0     0     0
SMALL
USER_CHARGES

@<TRIPOS>ATOM
      1 O1         -3.8895   -0.8532    0.2561 O.3       1 <0>        -0.4763
      2 O2          1.4159    0.3532    1.8951 O.2       1 <0>        -0.2702
      3 N1          4.9959   -1.3163   -0.4221 N.3       1 <0>        -0.3014
      4 N2          1.3120   -0.9258   -0.0363 N.am      1 <0>        -0.3101
      5 N3         -3.1535    1.3434    0.1313 N.ar      1 <0>        -0.2129
      6 C1          3.6863   -0.6999   -0.5914 C.3       1 <0>         0.0145
      7 C2          2.6159   -1.5350    0.0958 C.3       1 <0>         0.0247
      8 C3          5.9277   -0.8390   -1.4458 C.3       1 <0>        -0.0039
      9 C4          5.5270   -1.0412    0.9144 C.3       1 <0>        -0.0039
     10 C5         -0.5493    0.4965    0.6237 C.ar      1 <0>         0.0509
     11 C6          6.1562    0.6581   -1.3251 C.3       1 <0>        -0.0524
     12 C7          6.8622   -1.7339    1.1280 C.3       1 <0>        -0.0524
     13 C8         -0.8190    1.8586    0.4346 C.ar      1 <0>         0.0127
     14 C9          0.7943   -0.0112    0.8845 C.2       1 <0>         0.2449
     15 C10        -2.1534    2.2434    0.1877 C.ar      1 <0>         0.0755
     16 C11        -1.5776   -0.4332    0.5663 C.ar      1 <0>         0.0127
     17 C12        -6.1941   -1.4504   -0.0128 C.3       1 <0>        -0.0188
     18 C13        -2.8509    0.0383    0.3193 C.ar      1 <0>         0.2160
     19 C14        -5.1808   -0.3145   -0.0008 C.3       1 <0>         0.0912
     20 C15        -7.6047   -0.9441   -0.3000 C.3       1 <0>        -0.0528
     21 C16         0.2001    2.8248    0.4866 C.ar      1 <0>        -0.0518
     22 C17        -2.4208    3.5965   -0.0002 C.ar      1 <0>        -0.0356
     23 C18        -0.0956    4.1713    0.2951 C.ar      1 <0>        -0.0611
     24 C19        -1.4078    4.5573    0.0516 C.ar      1 <0>        -0.0597
     25 C20        -8.6065   -2.0864   -0.3537 C.3       1 <0>        -0.0652
     26 H1          3.4184   -0.6436   -1.6555 H         1 <0>         0.0442
     27 H2          3.6534    0.3285   -0.2085 H         1 <0>         0.0442
     28 H3          2.8114   -1.6678    1.1637 H         1 <0>         0.0475
     29 H4          2.5516   -2.5296   -0.3595 H         1 <0>         0.0475
     30 H5          5.5171   -1.0602   -2.4399 H         1 <0>         0.0424
     31 H6          6.8796   -1.3796   -1.4209 H         1 <0>         0.0424
     32 H7          5.6028    0.0252    1.1553 H         1 <0>         0.0424
     33 H8          4.8518   -1.4630    1.6672 H         1 <0>         0.0424
     34 H9          0.7557   -1.1762   -0.8488 H         1 <0>         0.1490
     35 H10         5.2397    1.2497   -1.3995 H         1 <0>         0.0242
     36 H11         6.6932    0.9436   -0.4164 H         1 <0>         0.0242
     37 H12         6.7906    0.9805   -2.1598 H         1 <0>         0.0242
     38 H13         6.8259   -2.7861    0.8255 H         1 <0>         0.0242
     39 H14         7.6820   -1.2408    0.5972 H         1 <0>         0.0242
     40 H15         7.1202   -1.7115    2.1928 H         1 <0>         0.0242
     41 H16        -5.8966   -2.1921   -0.7649 H         1 <0>         0.0298
     42 H17        -6.1668   -1.9739    0.9511 H         1 <0>         0.0298
     43 H18        -1.4001   -1.4937    0.7140 H         1 <0>         0.0678
     44 H19        -5.1867    0.1903   -0.9751 H         1 <0>         0.0697
     45 H20        -5.4511    0.4037    0.7835 H         1 <0>         0.0697
     46 H21        -7.9101   -0.2323    0.4757 H         1 <0>         0.0264
     47 H22        -7.6214   -0.4087   -1.2564 H         1 <0>         0.0264
     48 H23         1.2392    2.5601    0.6615 H         1 <0>         0.0624
     49 H24        -3.4407    3.9246   -0.1929 H         1 <0>         0.0639
     50 H25         0.6945    4.9149    0.3328 H         1 <0>         0.0618
     51 H26        -8.3479   -2.7984   -1.1440 H         1 <0>         0.0230
     52 H27        -9.6102   -1.7011   -0.5591 H         1 <0>         0.0230
     53 H28        -8.6377   -2.6256    0.5984 H         1 <0>         0.0230
     54 H29        -1.6476    5.6058   -0.0998 H         1 <0>         0.0618
@<TRIPOS>BOND
     1    1   18 1
     2    1   19 1
     3    2   14 2
     4    3    6 1
     5    3    8 1
     6    3    9 1
     7    4    7 1
     8    4   14 am
     9    4   34 1
    10    5   15 ar
    11    5   18 ar
    12    6    7 1
    13    6   26 1
    14    6   27 1
    15    7   28 1
    16    7   29 1
    17    8   11 1
    18    8   30 1
    19    8   31 1
    20    9   12 1
    21    9   32 1
    22    9   33 1
    23   10   13 ar
    24   10   14 1
    25   10   16 ar
    26   11   35 1
    27   11   36 1
    28   11   37 1
    29   12   38 1
    30   12   39 1
    31   12   40 1
    32   13   15 ar
    33   13   21 ar
    34   15   22 ar
    35   16   18 ar
    36   16   43 1
    37   17   19 1
    38   17   20 1
    39   17   41 1
    40   17   42 1
    41   19   44 1
    42   19   45 1
    43   20   25 1
    44   20   46 1
    45   20   47 1
    46   21   23 ar
    47   21   48 1
    48   22   24 ar
    49   22   49 1
    50   23   24 ar
    51   23   50 1
    52   24   54 1
    53   25   51 1
    54   25   52 1
    55   25   53 1
