@<TRIPOS>MOLECULE
DB00841
   45    46     0     0     0
SMALL
USER_CHARGES

@<TRIPOS>ATOM
      1 O1         -3.6838    3.4306    0.6858 O.3       1 <0>        -0.5033
      2 O2          4.8601    4.1459   -0.4428 O.3       1 <0>        -0.5068
      3 O3         -5.8656    2.7117   -0.8795 O.3       1 <0>        -0.5033
      4 N1         -0.2302   -2.4969    0.4447 N.3       1 <0>        -0.3132
      5 C1          0.8622   -2.7062   -0.5059 C.3       1 <0>         0.0051
      6 C2          1.6375   -1.3978   -0.7487 C.3       1 <0>        -0.0338
      7 C3          2.2549   -0.7672    0.5088 C.3       1 <0>        -0.0263
      8 C4         -1.1333   -1.4603   -0.0293 C.3       1 <0>         0.0001
      9 C5          1.8000   -3.7918    0.0234 C.3       1 <0>        -0.0497
     10 C6         -2.2768   -1.2353    0.9605 C.3       1 <0>        -0.0150
     11 C7          2.9511    0.5459    0.2541 C.ar      1 <0>        -0.0471
     12 C8         -3.2334   -0.1779    0.4701 C.ar      1 <0>        -0.0425
     13 C9          4.2988    0.5501   -0.0720 C.ar      1 <0>        -0.0551
     14 C10         2.2319    1.7275    0.3511 C.ar      1 <0>        -0.0551
     15 C11        -3.0139    1.1487    0.8082 C.ar      1 <0>        -0.0133
     16 C12        -4.3176   -0.5501   -0.3104 C.ar      1 <0>        -0.0549
     17 C13         4.9426    1.7650   -0.3067 C.ar      1 <0>        -0.0199
     18 C14         2.8758    2.9423    0.1162 C.ar      1 <0>        -0.0199
     19 C15        -3.8993    2.1265    0.3551 C.ar      1 <0>         0.1585
     20 C16         4.2312    2.9612   -0.2126 C.ar      1 <0>         0.1169
     21 C17        -5.2031    0.4276   -0.7634 C.ar      1 <0>        -0.0163
     22 C18        -4.9939    1.7661   -0.4306 C.ar      1 <0>         0.1582
     23 H1          0.4559   -3.0533   -1.4646 H         1 <0>         0.0458
     24 H2          2.4564   -1.6199   -1.4486 H         1 <0>         0.0283
     25 H3          1.0289   -0.6641   -1.2901 H         1 <0>         0.0283
     26 H4          2.9767   -1.4573    0.9624 H         1 <0>         0.0314
     27 H5          1.4874   -0.6076    1.2764 H         1 <0>         0.0314
     28 H6         -0.7414   -3.3687    0.5794 H         1 <0>         0.1222
     29 H7         -0.6307   -0.4944   -0.1352 H         1 <0>         0.0427
     30 H8         -1.5427   -1.7323   -1.0106 H         1 <0>         0.0427
     31 H9          2.1702   -3.5698    1.0298 H         1 <0>         0.0245
     32 H10         1.2791   -4.7550    0.0751 H         1 <0>         0.0245
     33 H11         2.6637   -3.9204   -0.6376 H         1 <0>         0.0245
     34 H12        -1.8792   -0.9443    1.9422 H         1 <0>         0.0325
     35 H13        -2.8256   -2.1717    1.1285 H         1 <0>         0.0325
     36 H14         4.8608   -0.3763   -0.1500 H         1 <0>         0.0621
     37 H15         1.1753    1.7227    0.6042 H         1 <0>         0.0621
     38 H16        -2.1583    1.4258    1.4188 H         1 <0>         0.0658
     39 H17        -4.4877   -1.5895   -0.5763 H         1 <0>         0.0621
     40 H18         5.9987    1.7659   -0.5629 H         1 <0>         0.0654
     41 H19         2.3160    3.8706    0.1903 H         1 <0>         0.0654
     42 H20        -6.0515    0.1330   -1.3753 H         1 <0>         0.0655
     43 H21        -2.8811    3.4907    1.2317 H         1 <0>         0.2923
     44 H22         5.7928    3.9714   -0.6569 H         1 <0>         0.2921
     45 H23        -6.5588    2.2788   -1.4067 H         1 <0>         0.2923
@<TRIPOS>BOND
     1    1   19 1
     2    1   43 1
     3    2   20 1
     4    2   44 1
     5    3   22 1
     6    3   45 1
     7    4    5 1
     8    4    8 1
     9    4   28 1
    10    5    6 1
    11    5    9 1
    12    5   23 1
    13    6    7 1
    14    6   24 1
    15    6   25 1
    16    7   11 1
    17    7   26 1
    18    7   27 1
    19    8   10 1
    20    8   29 1
    21    8   30 1
    22    9   31 1
    23    9   32 1
    24    9   33 1
    25   10   12 1
    26   10   34 1
    27   10   35 1
    28   11   13 ar
    29   11   14 ar
    30   12   15 ar
    31   12   16 ar
    32   13   17 ar
    33   13   36 1
    34   14   18 ar
    35   14   37 1
    36   15   19 ar
    37   15   38 1
    38   16   21 ar
    39   16   39 1
    40   17   20 ar
    41   17   40 1
    42   18   20 ar
    43   18   41 1
    44   19   22 ar
    45   21   22 ar
    46   21   42 1
