@<TRIPOS>MOLECULE
DB00977
   46    49     0     0     0
SMALL
USER_CHARGES

@<TRIPOS>ATOM
      1 O1         -4.4322    0.9120   -0.9369 O.3       1 <0>        -0.3760
      2 O2          6.5149    0.3654   -0.1877 O.3       1 <0>        -0.5068
      3 C1         -2.0308    0.5342   -0.4584 C.3       1 <0>         0.0111
      4 C2         -1.3404   -0.6453    0.2637 C.3       1 <0>        -0.0286
      5 C3          0.1564   -0.7267   -0.0449 C.3       1 <0>        -0.0305
      6 C4         -3.5147    0.2829   -0.0527 C.3       1 <0>         0.1317
      7 C5          0.8436    0.5859    0.4381 C.3       1 <0>        -0.0125
      8 C6         -1.3808    1.8405    0.0308 C.3       1 <0>        -0.0433
      9 C7         -2.2266   -1.8404   -0.0781 C.3       1 <0>        -0.0458
     10 C8          0.1486    1.8363   -0.1626 C.3       1 <0>        -0.0453
     11 C9         -3.6517   -1.2571   -0.1748 C.3       1 <0>        -0.0118
     12 C10         0.8304   -1.9198    0.6368 C.3       1 <0>        -0.0454
     13 C11        -1.9032    0.4787   -2.0099 C.3       1 <0>        -0.0558
     14 C12         2.3555    0.5269    0.2346 C.ar      1 <0>        -0.0406
     15 C13         2.2793   -2.0308    0.1723 C.3       1 <0>        -0.0270
     16 C14         3.0203   -0.7162    0.1530 C.ar      1 <0>        -0.0405
     17 C15        -3.8359    0.7052    1.3249 C.1       1 <0>        -0.0704
     18 C16         3.1331    1.6983    0.2129 C.ar      1 <0>        -0.0546
     19 C17         4.4174   -0.7551   -0.0012 C.ar      1 <0>        -0.0167
     20 C18         4.5214    1.6452    0.0694 C.ar      1 <0>        -0.0199
     21 C19         5.1634    0.4190   -0.0432 C.ar      1 <0>         0.1171
     22 C20        -4.0971    1.0483    2.4453 C.1       1 <0>        -0.1163
     23 H1         -1.4258   -0.4989    1.3522 H         1 <0>         0.0310
     24 H2          0.3024   -0.8425   -1.1264 H         1 <0>         0.0310
     25 H3          0.7065    0.6507    1.5288 H         1 <0>         0.0352
     26 H4         -1.5707    1.9943    1.0994 H         1 <0>         0.0272
     27 H5         -1.8150    2.7043   -0.4868 H         1 <0>         0.0272
     28 H6         -2.1706   -2.6190    0.6895 H         1 <0>         0.0269
     29 H7         -1.9373   -2.2961   -1.0318 H         1 <0>         0.0269
     30 H8          0.3952    1.9252   -1.2272 H         1 <0>         0.0271
     31 H9          0.5315    2.7468    0.3128 H         1 <0>         0.0271
     32 H10        -4.1022   -1.5461   -1.1324 H         1 <0>         0.0303
     33 H11        -4.2917   -1.6816    0.6081 H         1 <0>         0.0303
     34 H12         0.3123   -2.8565    0.4032 H         1 <0>         0.0271
     35 H13         0.7955   -1.7992    1.7273 H         1 <0>         0.0271
     36 H14        -0.8664    0.4971   -2.3546 H         1 <0>         0.0236
     37 H15        -2.3608   -0.4189   -2.4370 H         1 <0>         0.0236
     38 H16        -2.4004    1.3425   -2.4666 H         1 <0>         0.0236
     39 H17         2.2976   -2.4418   -0.8453 H         1 <0>         0.0313
     40 H18         2.8016   -2.7423    0.8234 H         1 <0>         0.0313
     41 H19        -5.3237    0.5779   -0.7369 H         1 <0>         0.2114
     42 H20         2.6769    2.6783    0.3152 H         1 <0>         0.0622
     43 H21         4.9189   -1.7172   -0.0860 H         1 <0>         0.0657
     44 H22         5.0938    2.5688    0.0499 H         1 <0>         0.0654
     45 H23        -4.3279    1.3526    3.4394 H         1 <0>         0.1229
     46 H24         6.7893   -0.5657   -0.2491 H         1 <0>         0.2921
@<TRIPOS>BOND
     1    1    6 1
     2    1   41 1
     3    2   21 1
     4    2   46 1
     5    3    4 1
     6    3    6 1
     7    3    8 1
     8    3   13 1
     9    4    5 1
    10    4    9 1
    11    4   23 1
    12    5    7 1
    13    5   12 1
    14    5   24 1
    15    6   11 1
    16    6   17 1
    17    7   10 1
    18    7   14 1
    19    7   25 1
    20    8   10 1
    21    8   26 1
    22    8   27 1
    23    9   11 1
    24    9   28 1
    25    9   29 1
    26   10   30 1
    27   10   31 1
    28   11   32 1
    29   11   33 1
    30   12   15 1
    31   12   34 1
    32   12   35 1
    33   13   36 1
    34   13   37 1
    35   13   38 1
    36   14   16 ar
    37   14   18 ar
    38   15   16 1
    39   15   39 1
    40   15   40 1
    41   16   19 ar
    42   17   22 3
    43   18   20 ar
    44   18   42 1
    45   19   21 ar
    46   19   43 1
    47   20   21 ar
    48   20   44 1
    49   22   45 1
