@<TRIPOS>MOLECULE
DB00801
   36    38     0     0     0
SMALL
USER_CHARGES

@<TRIPOS>ATOM
      1 Cl1         0.2756    4.5667   -1.3476 Cl        1 <0>        -0.0835
      2 F1         -3.9134   -0.9094    2.9656 F         1 <0>        -0.1689
      3 F2         -2.0929   -1.9680    2.4000 F         1 <0>        -0.1689
      4 F3         -2.1140    0.2167    2.4675 F         1 <0>        -0.1689
      5 O1         -2.2326   -3.0903   -0.5792 O.2       1 <0>        -0.2732
      6 N1         -2.1402   -0.7912   -0.2107 N.am      1 <0>        -0.2607
      7 N2          0.5367   -1.6831   -1.3335 N.2       1 <0>        -0.2734
      8 C1         -1.5120    0.4799   -0.4489 C.ar      1 <0>         0.0459
      9 C2         -0.1489    0.6148   -0.7851 C.ar      1 <0>         0.0233
     10 C3         -3.2823   -0.8334    0.7024 C.3       1 <0>         0.1150
     11 C4          0.7957   -0.5418   -0.7904 C.2       1 <0>         0.0750
     12 C5         -1.7634   -1.9805   -0.8453 C.2       1 <0>         0.2415
     13 C6         -0.7571   -1.8516   -1.9610 C.3       1 <0>         0.1170
     14 C7         -2.2743    1.6593   -0.3332 C.ar      1 <0>        -0.0382
     15 C8          0.3937    1.8813   -1.0693 C.ar      1 <0>        -0.0324
     16 C9          2.1188   -0.3953   -0.1177 C.ar      1 <0>         0.0006
     17 C10        -2.8411   -0.8737    2.1438 C.3       1 <0>         0.4056
     18 C11        -1.7230    2.9156   -0.5977 C.ar      1 <0>        -0.0416
     19 C12        -0.3927    3.0254   -0.9777 C.ar      1 <0>         0.0417
     20 C13         2.2452    0.4550    0.9740 C.ar      1 <0>        -0.0526
     21 C14         3.2114   -1.1127   -0.5897 C.ar      1 <0>        -0.0526
     22 C15         3.4826    0.5899    1.6034 C.ar      1 <0>        -0.0611
     23 C16         4.4488   -0.9778    0.0398 C.ar      1 <0>        -0.0611
     24 C17         4.5845   -0.1265    1.1363 C.ar      1 <0>        -0.0617
     25 H1         -4.0023   -0.0347    0.5228 H         1 <0>         0.0557
     26 H2         -3.8542   -1.7493    0.5087 H         1 <0>         0.0557
     27 H3         -0.7558   -2.7826   -2.5386 H         1 <0>         0.0605
     28 H4         -1.0191   -1.0533   -2.6640 H         1 <0>         0.0605
     29 H5         -3.3300    1.6590   -0.0881 H         1 <0>         0.0637
     30 H6          1.4350    1.9788   -1.3708 H         1 <0>         0.0639
     31 H7         -2.3545    3.7972   -0.5198 H         1 <0>         0.0633
     32 H8          1.4020    1.0012    1.3866 H         1 <0>         0.0624
     33 H9          3.1324   -1.7750   -1.4473 H         1 <0>         0.0624
     34 H10         3.5867    1.2467    2.4621 H         1 <0>         0.0618
     35 H11         5.3073   -1.5343   -0.3247 H         1 <0>         0.0618
     36 H12         5.5476   -0.0227    1.6274 H         1 <0>         0.0618
@<TRIPOS>BOND
     1    1   19 1
     2    2   17 1
     3    3   17 1
     4    4   17 1
     5    5   12 2
     6    6    8 1
     7    6   10 1
     8    6   12 am
     9    7   11 2
    10    7   13 1
    11    8    9 ar
    12    8   14 ar
    13    9   11 1
    14    9   15 ar
    15   10   17 1
    16   10   25 1
    17   10   26 1
    18   11   16 1
    19   12   13 1
    20   13   27 1
    21   13   28 1
    22   14   18 ar
    23   14   29 1
    24   15   19 ar
    25   15   30 1
    26   16   20 ar
    27   16   21 ar
    28   18   19 ar
    29   18   31 1
    30   20   22 ar
    31   20   32 1
    32   21   23 ar
    33   21   33 1
    34   22   24 ar
    35   22   34 1
    36   23   24 ar
    37   23   35 1
    38   24   36 1
