@<TRIPOS>MOLECULE
DB00722
   60    61     0     0     0
SMALL
USER_CHARGES

@<TRIPOS>ATOM
      1 O1          0.4963   -1.5314    1.7480 O.2       1 <0>        -0.2739
      2 O2          2.1671   -4.9538    2.3169 O.3       1 <0>        -0.4793
      3 O3          3.6485   -3.2922    1.8268 O.2       1 <0>        -0.2489
      4 O4         -1.1647    0.3602   -2.9126 O.3       1 <0>        -0.4795
      5 O5         -0.5113    2.2309   -1.8116 O.2       1 <0>        -0.2492
      6 N1          1.8530   -2.2906    0.0333 N.am      1 <0>        -0.2867
      7 N2         -0.0825    0.6854    0.4292 N.3       1 <0>        -0.2935
      8 N3          4.6657    5.3287    0.8612 N.3       1 <0>        -0.3300
      9 C1          1.7664   -3.7063    0.3668 C.3       1 <0>         0.1228
     10 C2          2.2955   -4.4279   -0.8673 C.3       1 <0>        -0.0225
     11 C3          2.6305   -2.0831   -1.1857 C.3       1 <0>         0.0156
     12 C4          3.2817   -3.4287   -1.4671 C.3       1 <0>        -0.0349
     13 C5          1.2080    0.0695    0.1356 C.3       1 <0>         0.0856
     14 C6          1.1423   -1.3188    0.7205 C.2       1 <0>         0.2333
     15 C7          2.3538    0.8829    0.7462 C.3       1 <0>        -0.0290
     16 C8         -1.0931    0.2486   -0.5229 C.3       1 <0>         0.1066
     17 C9          2.4213    2.3032    0.1707 C.3       1 <0>        -0.0500
     18 C10         2.6420   -3.9329    1.5623 C.2       1 <0>         0.3255
     19 C11        -2.4870    0.4834    0.0755 C.3       1 <0>        -0.0232
     20 C12         3.5422    3.1530    0.7790 C.3       1 <0>        -0.0406
     21 C13        -3.6501    0.0415   -0.8265 C.3       1 <0>        -0.0258
     22 C14        -0.8943    1.0678   -1.7861 C.2       1 <0>         0.3219
     23 C15         3.5899    4.5763    0.2243 C.3       1 <0>        -0.0069
     24 C16        -5.0173    0.2011   -0.2081 C.ar      1 <0>        -0.0473
     25 C17        -5.5748   -0.8428    0.5302 C.ar      1 <0>        -0.0586
     26 C18        -5.7234    1.3926   -0.3743 C.ar      1 <0>        -0.0586
     27 C19        -6.8385   -0.6953    1.1021 C.ar      1 <0>        -0.0615
     28 C20        -6.9870    1.5400    0.1978 C.ar      1 <0>        -0.0615
     29 C21        -7.5446    0.4959    0.9360 C.ar      1 <0>        -0.0617
     30 H1          0.7297   -3.9642    0.6081 H         1 <0>         0.0616
     31 H2          2.7651   -5.3913   -0.6468 H         1 <0>         0.0289
     32 H3          1.4765   -4.5980   -1.5767 H         1 <0>         0.0289
     33 H4          1.9365   -1.8173   -1.9906 H         1 <0>         0.0465
     34 H5          3.3633   -1.2827   -1.0596 H         1 <0>         0.0465
     35 H6          3.4600   -3.5945   -2.5333 H         1 <0>         0.0281
     36 H7          4.2450   -3.4973   -0.9479 H         1 <0>         0.0281
     37 H8          1.3655    0.0424   -0.9460 H         1 <0>         0.0557
     38 H9          2.2357    0.9367    1.8368 H         1 <0>         0.0285
     39 H10         3.3099    0.3748    0.5734 H         1 <0>         0.0285
     40 H11        -0.3600    0.4870    1.3897 H         1 <0>         0.1234
     41 H12        -0.9908   -0.8176   -0.7598 H         1 <0>         0.0576
     42 H13         1.4702    2.8218    0.3406 H         1 <0>         0.0266
     43 H14         2.5635    2.2466   -0.9156 H         1 <0>         0.0266
     44 H15        -2.5638   -0.0541    1.0308 H         1 <0>         0.0289
     45 H16        -2.6162    1.5491    0.3115 H         1 <0>         0.0289
     46 H17         4.5031    2.6546    0.5969 H         1 <0>         0.0277
     47 H18         3.4071    3.1907    1.8678 H         1 <0>         0.0277
     48 H19        -3.6294    0.6048   -1.7678 H         1 <0>         0.0314
     49 H20        -3.5098   -1.0092   -1.1128 H         1 <0>         0.0314
     50 H21         2.6380    5.0846    0.4112 H         1 <0>         0.0422
     51 H22         3.7506    4.5543   -0.8589 H         1 <0>         0.0422
     52 H23         2.7281   -5.1191    3.1046 H         1 <0>         0.2951
     53 H24         5.5597    4.8784    0.6692 H         1 <0>         0.1182
     54 H25         4.7191    6.2579    0.4462 H         1 <0>         0.1182
     55 H26        -5.0334   -1.7748    0.6686 H         1 <0>         0.0620
     56 H27        -5.2985    2.2139   -0.9453 H         1 <0>         0.0620
     57 H28        -1.0231    0.8947   -3.7228 H         1 <0>         0.2951
     58 H29        -7.2723   -1.5079    1.6775 H         1 <0>         0.0618
     59 H30        -7.5366    2.4678    0.0690 H         1 <0>         0.0618
     60 H31        -8.5283    0.6108    1.3816 H         1 <0>         0.0618
@<TRIPOS>BOND
     1    1   14 2
     2    2   18 1
     3    2   52 1
     4    3   18 2
     5    4   22 1
     6    4   57 1
     7    5   22 2
     8    6    9 1
     9    6   11 1
    10    6   14 am
    11    7   13 1
    12    7   16 1
    13    7   40 1
    14    8   23 1
    15    8   53 1
    16    8   54 1
    17    9   10 1
    18    9   18 1
    19    9   30 1
    20   10   12 1
    21   10   31 1
    22   10   32 1
    23   11   12 1
    24   11   33 1
    25   11   34 1
    26   12   35 1
    27   12   36 1
    28   13   14 1
    29   13   15 1
    30   13   37 1
    31   15   17 1
    32   15   38 1
    33   15   39 1
    34   16   19 1
    35   16   22 1
    36   16   41 1
    37   17   20 1
    38   17   42 1
    39   17   43 1
    40   19   21 1
    41   19   44 1
    42   19   45 1
    43   20   23 1
    44   20   46 1
    45   20   47 1
    46   21   24 1
    47   21   48 1
    48   21   49 1
    49   23   50 1
    50   23   51 1
    51   24   25 ar
    52   24   26 ar
    53   25   27 ar
    54   25   55 1
    55   26   28 ar
    56   26   56 1
    57   27   29 ar
    58   27   58 1
    59   28   29 ar
    60   28   59 1
    61   29   60 1
