@<TRIPOS>MOLECULE
DB00806
   38    39     0     0     0
SMALL
USER_CHARGES

@<TRIPOS>ATOM
      1 O1          1.1669    1.9380    0.8542 O.2       1 <0>        -0.2652
      2 O2          0.7265   -2.7258    0.5894 O.2       1 <0>        -0.2462
      3 O3         -5.6625    0.1661    1.3001 O.2       1 <0>        -0.2977
      4 N1          0.9226   -0.3957    0.7307 N.am      1 <0>        -0.2591
      5 N2          2.7384   -1.7735   -0.0882 N.am      1 <0>        -0.2796
      6 N3          3.9220    1.5201   -0.2332 N.pl3     1 <0>        -0.3277
      7 N4          4.7395   -0.4934   -0.7313 N.2       1 <0>        -0.2177
      8 C1         -0.4360   -0.3135    1.2565 C.3       1 <0>         0.0310
      9 C2         -1.4779   -0.1588    0.1528 C.3       1 <0>        -0.0343
     10 C3         -2.9044   -0.0432    0.7044 C.3       1 <0>        -0.0448
     11 C4          2.9343    0.6237    0.0588 C.2       1 <0>         0.1512
     12 C5          1.6216    0.8313    0.5783 C.2       1 <0>         0.2824
     13 C6          3.4605   -0.5997   -0.2547 C.cat     1 <0>         0.1678
     14 C7          1.4165   -1.7141    0.4199 C.2       1 <0>         0.3333
     15 C8         -3.9460    0.1033   -0.4043 C.3       1 <0>         0.0056
     16 C9          4.9886    0.7997   -0.7057 C.2       1 <0>         0.0986
     17 C10         3.3423   -3.0536   -0.4367 C.3       1 <0>         0.0181
     18 C11         3.8792    2.9549   -0.0830 C.3       1 <0>         0.0135
     19 C12        -5.3732    0.2164    0.1057 C.2       1 <0>         0.1303
     20 C13        -6.4353    0.4349   -0.9405 C.3       1 <0>        -0.0061
     21 H1         -0.6542   -1.2115    1.8459 H         1 <0>         0.0494
     22 H2         -0.5042    0.5369    1.9453 H         1 <0>         0.0494
     23 H3         -1.2487    0.7308   -0.4472 H         1 <0>         0.0283
     24 H4         -1.4196   -1.0158   -0.5298 H         1 <0>         0.0283
     25 H5         -2.9665    0.8187    1.3804 H         1 <0>         0.0270
     26 H6         -3.1352   -0.9305    1.3072 H         1 <0>         0.0270
     27 H7         -3.8998   -0.7646   -1.0717 H         1 <0>         0.0341
     28 H8         -3.7298    1.0025   -0.9921 H         1 <0>         0.0341
     29 H9          5.9142    1.2665   -1.0141 H         1 <0>         0.1029
     30 H10         2.6565   -3.8845   -0.2523 H         1 <0>         0.0458
     31 H11         4.2429   -3.1984    0.1679 H         1 <0>         0.0458
     32 H12         3.6079   -3.0442   -1.4983 H         1 <0>         0.0458
     33 H13         4.8310    3.3846   -0.4054 H         1 <0>         0.0456
     34 H14         3.0690    3.3439   -0.7046 H         1 <0>         0.0456
     35 H15         3.7071    3.1876    0.9707 H         1 <0>         0.0456
     36 H16        -6.2642    1.3905   -1.4420 H         1 <0>         0.0306
     37 H17        -6.4089   -0.3822   -1.6657 H         1 <0>         0.0306
     38 H18        -7.4211    0.4527   -0.4676 H         1 <0>         0.0306
@<TRIPOS>BOND
     1    1   12 2
     2    2   14 2
     3    3   19 2
     4    4    8 1
     5    4   12 am
     6    4   14 am
     7    5   13 2
     8    5   14 am
     9    5   17 1
    10    6   11 2
    11    6   16 1
    12    6   18 1
    13    7   13 1
    14    7   16 2
    15    8    9 1
    16    8   21 1
    17    8   22 1
    18    9   10 1
    19    9   23 1
    20    9   24 1
    21   10   15 1
    22   10   25 1
    23   10   26 1
    24   11   12 1
    25   11   13 1
    26   15   19 1
    27   15   27 1
    28   15   28 1
    29   16   29 1
    30   17   30 1
    31   17   31 1
    32   17   32 1
    33   18   33 1
    34   18   34 1
    35   18   35 1
    36   19   20 1
    37   20   36 1
    38   20   37 1
    39   20   38 1
