@<TRIPOS>MOLECULE
DB00280
   54    55     0     0     0
SMALL
USER_CHARGES

@<TRIPOS>ATOM
      1 O1          0.4888   -1.0488   -2.7647 O.2       1 <0>        -0.2746
      2 N1         -1.7395   -0.3937    0.2007 N.3       1 <0>        -0.2974
      3 N2          3.0731   -0.8384    1.0837 N.ar      1 <0>        -0.2585
      4 N3          1.5639   -2.7073   -1.6269 N.am      1 <0>        -0.3283
      5 C1          1.2420   -0.5313   -0.4712 C.3       1 <0>         0.1144
      6 C2          0.4819   -1.3430    0.6542 C.3       1 <0>        -0.0166
      7 C3         -1.0000   -1.6431    0.3628 C.3       1 <0>         0.0010
      8 C4         -3.1372   -0.6653   -0.1353 C.3       1 <0>         0.0050
      9 C5         -1.6552    0.4136    1.4178 C.3       1 <0>         0.0050
     10 C6          0.6653    0.8956   -0.6942 C.ar      1 <0>        -0.0266
     11 C7          2.7464   -0.3559   -0.1050 C.ar      1 <0>         0.0606
     12 C8          1.0740   -1.4209   -1.7473 C.2       1 <0>         0.2269
     13 C9         -3.8999    0.6518   -0.2388 C.3       1 <0>        -0.0497
     14 C10        -3.2245   -1.4532   -1.4393 C.3       1 <0>        -0.0497
     15 C11        -2.3044   -0.3411    2.5738 C.3       1 <0>        -0.0497
     16 C12        -0.1997    0.7488    1.7306 C.3       1 <0>        -0.0497
     17 C13         1.2220    1.9215    0.0119 C.ar      1 <0>        -0.0572
     18 C14        -0.3616    1.0329   -1.5815 C.ar      1 <0>        -0.0572
     19 C15         3.5331    0.2566   -1.0220 C.ar      1 <0>        -0.0390
     20 C16         0.7049    3.2014   -0.1878 C.ar      1 <0>        -0.0615
     21 C17        -0.8789    2.3129   -1.7813 C.ar      1 <0>        -0.0615
     22 C18         4.8696    0.3974   -0.6651 C.ar      1 <0>        -0.0586
     23 C19        -0.3456    3.3971   -1.0845 C.ar      1 <0>        -0.0617
     24 C20         4.3792   -0.6833    1.3960 C.ar      1 <0>         0.0279
     25 C21         5.3087   -0.0788    0.5653 C.ar      1 <0>        -0.0436
     26 H1          0.7077   -1.2493    1.7236 H         1 <0>         0.0294
     27 H2          0.9113   -2.3583    0.6105 H         1 <0>         0.0294
     28 H3         -1.4104   -2.3107    1.1285 H         1 <0>         0.0427
     29 H4         -1.0241   -2.2343   -0.5565 H         1 <0>         0.0427
     30 H5         -3.6395   -1.2973    0.6059 H         1 <0>         0.0457
     31 H6         -2.1544    1.3798    1.2918 H         1 <0>         0.0457
     32 H7         -4.1173    1.1026    0.7344 H         1 <0>         0.0245
     33 H8         -4.8802    0.4800   -0.7004 H         1 <0>         0.0245
     34 H9         -3.3891    1.3864   -0.8668 H         1 <0>         0.0245
     35 H10        -4.2678   -1.5078   -1.7742 H         1 <0>         0.0245
     36 H11        -2.6617   -0.9890   -2.2535 H         1 <0>         0.0245
     37 H12        -2.8992   -2.4924   -1.3322 H         1 <0>         0.0245
     38 H13        -3.3687   -0.5495    2.4423 H         1 <0>         0.0245
     39 H14        -2.2677    0.2931    3.4706 H         1 <0>         0.0245
     40 H15        -1.7935   -1.2662    2.8558 H         1 <0>         0.0245
     41 H16         0.8159    0.4484    1.5938 H         1 <0>         0.0245
     42 H17        -0.1534    0.5291    2.8186 H         1 <0>         0.0245
     43 H18        -0.1919    1.8455    1.8390 H         1 <0>         0.0245
     44 H19         2.0537    1.8499    0.7056 H         1 <0>         0.0621
     45 H20        -0.8965    0.2619   -2.1061 H         1 <0>         0.0621
     46 H21         3.1855    0.6125   -1.9839 H         1 <0>         0.0636
     47 H22         1.4649   -3.3674   -2.3912 H         1 <0>         0.1450
     48 H23         2.1194   -3.0207   -0.8382 H         1 <0>         0.1450
     49 H24         1.1222    4.0471    0.3512 H         1 <0>         0.0618
     50 H25        -1.7067    2.4654   -2.4679 H         1 <0>         0.0618
     51 H26         5.5682    0.8748   -1.3457 H         1 <0>         0.0619
     52 H27        -0.7502    4.3931   -1.2378 H         1 <0>         0.0618
     53 H28         4.6709   -1.0715    2.3663 H         1 <0>         0.0829
     54 H29         6.3460    0.0195    0.8642 H         1 <0>         0.0633
@<TRIPOS>BOND
     1    1   12 2
     2    2    7 1
     3    2    8 1
     4    2    9 1
     5    3   11 ar
     6    3   24 ar
     7    4   12 am
     8    4   47 1
     9    4   48 1
    10    5    6 1
    11    5   10 1
    12    5   11 1
    13    5   12 1
    14    6    7 1
    15    6   26 1
    16    6   27 1
    17    7   28 1
    18    7   29 1
    19    8   13 1
    20    8   14 1
    21    8   30 1
    22    9   15 1
    23    9   16 1
    24    9   31 1
    25   10   17 ar
    26   10   18 ar
    27   11   19 ar
    28   13   32 1
    29   13   33 1
    30   13   34 1
    31   14   35 1
    32   14   36 1
    33   14   37 1
    34   15   38 1
    35   15   39 1
    36   15   40 1
    37   16   41 1
    38   16   42 1
    39   16   43 1
    40   17   20 ar
    41   17   44 1
    42   18   21 ar
    43   18   45 1
    44   19   22 ar
    45   19   46 1
    46   20   23 ar
    47   20   49 1
    48   21   23 ar
    49   21   50 1
    50   22   25 ar
    51   22   51 1
    52   23   52 1
    53   24   25 ar
    54   24   53 1
    55   25   54 1
