@<TRIPOS>MOLECULE
DB00622
   64    66     0     0     0
SMALL
USER_CHARGES

@<TRIPOS>ATOM
      1 O1         -0.9509   -0.3733   -1.7987 O.3       1 <0>        -0.4600
      2 O2          5.2618   -0.2197   -0.7551 O.3       1 <0>        -0.4646
      3 O3          0.7435   -1.0095   -3.2420 O.2       1 <0>        -0.2452
      4 O4          5.0216    0.3994    1.4626 O.2       1 <0>        -0.2452
      5 O5         -0.3274   -2.1907    4.2605 O.3       1 <0>        -0.5760
      6 O6         -0.2492   -0.1120    3.5589 O.2       1 <0>         0.0414
      7 N1          1.7728    2.5705   -0.5433 N.pl3     1 <0>        -0.3207
      8 N2         -3.2075   -1.5100   -0.4856 N.3       1 <0>        -0.2980
      9 N3          0.0330   -1.3273    3.4243 N.pl3     1 <0>         0.0796
     10 C1          2.3751   -0.1878   -0.7817 C.3       1 <0>         0.0508
     11 C2          1.1520    0.4671   -1.4337 C.2       1 <0>         0.0652
     12 C3          3.3192    0.8277   -0.1300 C.2       1 <0>         0.0651
     13 C4          1.9322   -1.2009    0.2348 C.ar      1 <0>        -0.0287
     14 C5          0.8984    1.7868   -1.2799 C.2       1 <0>         0.0157
     15 C6          2.9754    2.1302   -0.0147 C.2       1 <0>         0.0157
     16 C7          0.3149   -0.3977   -2.2810 C.2       1 <0>         0.3376
     17 C8          1.1954   -0.7966    1.3480 C.ar      1 <0>         0.0197
     18 C9          2.2578   -2.5465    0.0652 C.ar      1 <0>        -0.0572
     19 C10        -0.2898    2.5182   -1.8436 C.3       1 <0>        -0.0260
     20 C11         4.6278    0.3202    0.3135 C.2       1 <0>         0.3373
     21 C12         3.8033    3.1957    0.6517 C.3       1 <0>        -0.0260
     22 C13        -3.2550   -1.0409   -1.8625 C.3       1 <0>         0.0333
     23 C14        -1.8916   -1.1734   -2.5221 C.3       1 <0>         0.1054
     24 C15         0.7837   -1.7381    2.2912 C.ar      1 <0>         0.2734
     25 C16         1.8463   -3.4881    1.0084 C.ar      1 <0>        -0.0551
     26 C17        -4.3193   -0.9548    0.2898 C.3       1 <0>         0.0239
     27 C18         1.1092   -3.0838    2.1215 C.ar      1 <0>         0.0156
     28 C19        -4.0741    0.4803    0.6736 C.ar      1 <0>        -0.0334
     29 C20        -3.2377   -2.9738   -0.4355 C.3       1 <0>        -0.0123
     30 C21        -5.1501    1.3541    0.8298 C.ar      1 <0>        -0.0573
     31 C22        -2.7709    0.9363    0.8726 C.ar      1 <0>        -0.0573
     32 C23         6.5583   -0.7611   -0.4819 C.3       1 <0>         0.0820
     33 C24        -4.9231    2.6836    1.1853 C.ar      1 <0>        -0.0615
     34 C25        -2.5440    2.2658    1.2282 C.ar      1 <0>        -0.0615
     35 C26        -3.6200    3.1395    1.3844 C.ar      1 <0>        -0.0617
     36 H1          2.9292   -0.6820   -1.5920 H         1 <0>         0.0451
     37 H2          1.5444    3.5524   -0.4351 H         1 <0>         0.1516
     38 H3          0.9453    0.2542    1.4711 H         1 <0>         0.0688
     39 H4          2.8314   -2.8768   -0.7967 H         1 <0>         0.0621
     40 H5         -0.9660    2.8266   -1.0440 H         1 <0>         0.0290
     41 H6         -0.8598    1.9423   -2.5759 H         1 <0>         0.0290
     42 H7          0.0459    3.4231   -2.3638 H         1 <0>         0.0290
     43 H8          3.3121    3.5329    1.5705 H         1 <0>         0.0290
     44 H9          4.8123    2.8659    0.9099 H         1 <0>         0.0290
     45 H10         3.9144    4.0589   -0.0141 H         1 <0>         0.0290
     46 H11        -4.0160   -1.5712   -2.4490 H         1 <0>         0.0460
     47 H12        -3.5178    0.0239   -1.9009 H         1 <0>         0.0460
     48 H13        -1.5481   -2.2126   -2.5613 H         1 <0>         0.0710
     49 H14        -1.9564   -0.7958   -3.5499 H         1 <0>         0.0710
     50 H15         2.0999   -4.5358    0.8757 H         1 <0>         0.0620
     51 H16        -5.2672   -1.0614   -0.2544 H         1 <0>         0.0476
     52 H17        -4.4314   -1.5007    1.2364 H         1 <0>         0.0476
     53 H18         0.8053   -3.8449    2.8354 H         1 <0>         0.0685
     54 H19        -2.3770   -3.4157   -0.9462 H         1 <0>         0.0391
     55 H20        -4.1529   -3.3842   -0.8779 H         1 <0>         0.0391
     56 H21        -3.1766   -3.3207    0.6026 H         1 <0>         0.0391
     57 H22        -6.1699    1.0105    0.6788 H         1 <0>         0.0621
     58 H23        -1.9113    0.2785    0.7859 H         1 <0>         0.0621
     59 H24         6.9641   -1.1591   -1.4157 H         1 <0>         0.0661
     60 H25         6.4823   -1.5766    0.2438 H         1 <0>         0.0661
     61 H26         7.2268    0.0231   -0.1140 H         1 <0>         0.0661
     62 H27        -5.7609    3.3636    1.3080 H         1 <0>         0.0618
     63 H28        -1.5302    2.6178    1.3957 H         1 <0>         0.0618
     64 H29        -3.4432    4.1740    1.6640 H         1 <0>         0.0618
@<TRIPOS>BOND
     1    1   16 1
     2    1   23 1
     3    2   20 1
     4    2   32 1
     5    3   16 2
     6    4   20 2
     7    5    9 1
     8    6    9 2
     9    7   14 1
    10    7   15 1
    11    7   37 1
    12    8   22 1
    13    8   26 1
    14    8   29 1
    15    9   24 1
    16   10   11 1
    17   10   12 1
    18   10   13 1
    19   10   36 1
    20   11   14 2
    21   11   16 1
    22   12   15 2
    23   12   20 1
    24   13   17 ar
    25   13   18 ar
    26   14   19 1
    27   15   21 1
    28   17   24 ar
    29   17   38 1
    30   18   25 ar
    31   18   39 1
    32   19   40 1
    33   19   41 1
    34   19   42 1
    35   21   43 1
    36   21   44 1
    37   21   45 1
    38   22   23 1
    39   22   46 1
    40   22   47 1
    41   23   48 1
    42   23   49 1
    43   24   27 ar
    44   25   27 ar
    45   25   50 1
    46   26   28 1
    47   26   51 1
    48   26   52 1
    49   27   53 1
    50   28   30 ar
    51   28   31 ar
    52   29   54 1
    53   29   55 1
    54   29   56 1
    55   30   33 ar
    56   30   57 1
    57   31   34 ar
    58   31   58 1
    59   32   59 1
    60   32   60 1
    61   32   61 1
    62   33   35 ar
    63   33   62 1
    64   34   35 ar
    65   34   63 1
    66   35   64 1
