@<TRIPOS>MOLECULE
DB00348
   33    34     0     0     0
SMALL
USER_CHARGES

@<TRIPOS>ATOM
      1 F1         -5.0679   -2.2563    0.1533 F         1 <0>        -0.1659
      2 F2         -5.7946   -0.2719    0.6413 F         1 <0>        -0.1659
      3 F3         -5.2864   -0.7655   -1.4147 F         1 <0>        -0.1659
      4 O1          0.7125   -1.1165   -1.7330 O.2       1 <0>        -0.2962
      5 O2          3.0543    2.4889    0.0155 O.2       1 <0>        -0.2962
      6 O3          0.8725    1.2161    1.8386 O.2       1 <0>        -0.2906
      7 O4         -2.3936    3.4218   -0.5921 O.3       1 <0>        -0.5760
      8 O5         -0.3144    3.0330   -0.0048 O.2       1 <0>         0.0415
      9 N1         -1.4926    2.6480   -0.1912 N.pl3     1 <0>         0.0803
     10 C1          1.5088    0.7017   -0.3895 C.3       1 <0>         0.1383
     11 C2          3.9774   -0.9168   -0.3525 C.3       1 <0>        -0.0396
     12 C3          2.6373   -1.6316   -0.4131 C.3       1 <0>         0.0074
     13 C4          3.8980    0.3138    0.5356 C.3       1 <0>         0.0074
     14 C5          1.5732   -0.7050   -0.9532 C.2       1 <0>         0.1510
     15 C6          2.8566    1.2728    0.0078 C.2       1 <0>         0.1510
     16 C7          0.5281    0.7973    0.7360 C.2       1 <0>         0.1870
     17 C8         -0.8829    0.3768    0.5052 C.ar      1 <0>         0.0955
     18 C9         -1.8186    1.2864    0.0614 C.ar      1 <0>         0.2841
     19 C10        -1.1971   -0.9439    0.7520 C.ar      1 <0>        -0.0442
     20 C11        -3.4743   -0.4728    0.0967 C.ar      1 <0>         0.0612
     21 C12        -3.1297    0.8570   -0.1452 C.ar      1 <0>         0.0279
     22 C13        -2.5080   -1.3732    0.5453 C.ar      1 <0>        -0.0490
     23 C14        -4.8756   -0.9325   -0.1237 C.3       1 <0>         0.4176
     24 H1          1.1646    1.3339   -1.2185 H         1 <0>         0.0537
     25 H2          4.7419   -1.6004    0.0330 H         1 <0>         0.0273
     26 H3          4.2820   -0.6208   -1.3644 H         1 <0>         0.0273
     27 H4          2.3258   -1.9767    0.5785 H         1 <0>         0.0342
     28 H5          2.7141   -2.5025   -1.0725 H         1 <0>         0.0342
     29 H6          4.8687    0.8207    0.5494 H         1 <0>         0.0342
     30 H7          3.6353    0.0458    1.5643 H         1 <0>         0.0342
     31 H8         -0.4528   -1.6501    1.1078 H         1 <0>         0.0627
     32 H9         -3.9053    1.5351   -0.4942 H         1 <0>         0.0691
     33 H10        -2.7572   -2.4125    0.7408 H         1 <0>         0.0623
@<TRIPOS>BOND
     1    1   23 1
     2    2   23 1
     3    3   23 1
     4    4   14 2
     5    5   15 2
     6    6   16 2
     7    7    9 1
     8    8    9 2
     9    9   18 1
    10   10   14 1
    11   10   15 1
    12   10   16 1
    13   10   24 1
    14   11   12 1
    15   11   13 1
    16   11   25 1
    17   11   26 1
    18   12   14 1
    19   12   27 1
    20   12   28 1
    21   13   15 1
    22   13   29 1
    23   13   30 1
    24   16   17 1
    25   17   18 ar
    26   17   19 ar
    27   18   21 ar
    28   19   22 ar
    29   19   31 1
    30   20   21 ar
    31   20   22 ar
    32   20   23 1
    33   21   32 1
    34   22   33 1
