@<TRIPOS>MOLECULE
DB00613
   47    49     0     0     0
SMALL
USER_CHARGES

@<TRIPOS>ATOM
      1 Cl1        -7.7356   -1.2303   -1.5215 Cl        1 <0>        -0.0835
      2 O1          3.4605    3.1932   -0.0973 O.3       1 <0>        -0.5065
      3 N1          2.7033   -0.8066   -0.2917 N.3       1 <0>        -0.2986
      4 N2         -1.8281    1.5274    0.3467 N.pl3     1 <0>        -0.3139
      5 N3         -3.5151   -2.2394    1.1084 N.ar      1 <0>        -0.2548
      6 C1          2.8282    0.5226   -0.8906 C.3       1 <0>         0.0275
      7 C2          1.8072    1.4785   -0.3677 C.ar      1 <0>         0.0098
      8 C3          2.8734   -0.7311    1.1585 C.3       1 <0>        -0.0036
      9 C4          3.6822   -1.7230   -0.8749 C.3       1 <0>        -0.0036
     10 C5          0.4803    1.0643   -0.2530 C.ar      1 <0>        -0.0327
     11 C6         -0.4904    1.9430    0.2351 C.ar      1 <0>         0.0318
     12 C7          2.1684    2.7731    0.0052 C.ar      1 <0>         0.1214
     13 C8          2.7468   -2.1033    1.7983 C.3       1 <0>        -0.0523
     14 C9          3.4808   -1.8598   -2.3746 C.3       1 <0>        -0.0523
     15 C10        -0.1244    3.2392    0.6077 C.ar      1 <0>        -0.0371
     16 C11        -2.4198    0.2647    0.5874 C.ar      1 <0>         0.0420
     17 C12         1.2026    3.6535    0.4930 C.ar      1 <0>        -0.0181
     18 C13        -3.6819   -0.0678    0.0770 C.ar      1 <0>         0.0216
     19 C14        -4.1987   -1.3482    0.3659 C.ar      1 <0>         0.0741
     20 C15        -1.7130   -0.6516    1.3530 C.ar      1 <0>        -0.0218
     21 C16        -4.4228    0.8374   -0.7015 C.ar      1 <0>        -0.0494
     22 C17        -5.4525   -1.6780   -0.1415 C.ar      1 <0>        -0.0173
     23 C18        -2.3004   -1.8792    1.5822 C.ar      1 <0>         0.0300
     24 C19        -5.6742    0.4813   -1.1960 C.ar      1 <0>        -0.0426
     25 C20        -6.1893   -0.7782   -0.9155 C.ar      1 <0>         0.0430
     26 H1          2.6543    0.4932   -1.9722 H         1 <0>         0.0477
     27 H2          3.8477    0.9014   -0.7453 H         1 <0>         0.0477
     28 H3          3.8441   -0.2956    1.4297 H         1 <0>         0.0424
     29 H4          2.1026   -0.1066    1.6219 H         1 <0>         0.0424
     30 H5          4.7137   -1.4131   -0.6650 H         1 <0>         0.0424
     31 H6          3.5548   -2.7346   -0.4766 H         1 <0>         0.0424
     32 H7          0.1967    0.0680   -0.5839 H         1 <0>         0.0640
     33 H8          1.8618   -2.6399    1.4390 H         1 <0>         0.0242
     34 H9          3.6334   -2.7251    1.6410 H         1 <0>         0.0242
     35 H10         2.6381   -1.9906    2.8832 H         1 <0>         0.0242
     36 H11         2.4299   -2.0346   -2.6297 H         1 <0>         0.0242
     37 H12         3.8416   -0.9871   -2.9273 H         1 <0>         0.0242
     38 H13         4.0524   -2.7189   -2.7441 H         1 <0>         0.0242
     39 H14        -2.4901    2.2973    0.3580 H         1 <0>         0.1522
     40 H15        -0.8669    3.9355    0.9897 H         1 <0>         0.0637
     41 H16         1.4700    4.6646    0.7879 H         1 <0>         0.0655
     42 H17        -0.7454   -0.4344    1.7910 H         1 <0>         0.0651
     43 H18        -4.0500    1.8274   -0.9500 H         1 <0>         0.0625
     44 H19        -5.8658   -2.6631    0.0725 H         1 <0>         0.0653
     45 H20         3.5199    4.1149    0.2074 H         1 <0>         0.2921
     46 H21        -1.7976   -2.6336    2.1785 H         1 <0>         0.0830
     47 H22        -6.2324    1.1933   -1.7980 H         1 <0>         0.0632
@<TRIPOS>BOND
     1    1   25 1
     2    2   12 1
     3    2   45 1
     4    3    6 1
     5    3    8 1
     6    3    9 1
     7    4   11 1
     8    4   16 1
     9    4   39 1
    10    5   19 ar
    11    5   23 ar
    12    6    7 1
    13    6   26 1
    14    6   27 1
    15    7   10 ar
    16    7   12 ar
    17    8   13 1
    18    8   28 1
    19    8   29 1
    20    9   14 1
    21    9   30 1
    22    9   31 1
    23   10   11 ar
    24   10   32 1
    25   11   15 ar
    26   12   17 ar
    27   13   33 1
    28   13   34 1
    29   13   35 1
    30   14   36 1
    31   14   37 1
    32   14   38 1
    33   15   17 ar
    34   15   40 1
    35   16   18 ar
    36   16   20 ar
    37   17   41 1
    38   18   19 ar
    39   18   21 ar
    40   19   22 ar
    41   20   23 ar
    42   20   42 1
    43   21   24 ar
    44   21   43 1
    45   22   25 ar
    46   22   44 1
    47   23   46 1
    48   24   25 ar
    49   24   47 1
