@<TRIPOS>MOLECULE
DB00524
   40    42     0     0     0
SMALL
USER_CHARGES

@<TRIPOS>ATOM
      1 Cl1         5.2810    1.4270   -1.2583 Cl        1 <0>        -0.0815
      2 S1          5.0625   -0.8906    0.9853 S.o2      1 <0>         0.0574
      3 O1         -0.1406   -1.2951    1.5075 O.2       1 <0>        -0.2695
      4 O2          6.1676    0.0534    0.8470 O.2       1 <0>        -0.1532
      5 O3          4.6542   -1.3605    2.3046 O.2       1 <0>        -0.1532
      6 N1         -1.2101    0.3188    0.1674 N.am      1 <0>        -0.2485
      7 N2          0.1962    1.7704   -1.1547 N.pl3     1 <0>        -0.3250
      8 N3          5.4262   -2.2623    0.0147 N.pl3     1 <0>        -0.2035
      9 C1         -1.0332    1.6768   -0.3855 C.3       1 <0>         0.0921
     10 C2          1.3331    1.1481   -0.6679 C.ar      1 <0>         0.0422
     11 C3          1.2407    0.1297    0.2873 C.ar      1 <0>         0.0600
     12 C4         -0.0986   -0.3529    0.7198 C.2       1 <0>         0.2541
     13 C5         -2.5441   -0.2382    0.2527 C.ar      1 <0>         0.0413
     14 C6         -1.0254    2.7466    0.7118 C.3       1 <0>        -0.0294
     15 C7          2.3975   -0.4837    0.7873 C.ar      1 <0>        -0.0200
     16 C8          2.6005    1.5174   -1.1388 C.ar      1 <0>        -0.0198
     17 C9          3.6515   -0.0883    0.3245 C.ar      1 <0>         0.1241
     18 C10        -3.0259   -1.0814   -0.7446 C.ar      1 <0>        -0.0290
     19 C11         3.7533    0.9075   -0.6425 C.ar      1 <0>         0.0690
     20 C12        -3.3391    0.0828    1.3492 C.ar      1 <0>        -0.0399
     21 C13        -4.3137   -1.6077   -0.6446 C.ar      1 <0>        -0.0571
     22 C14        -2.1905   -1.4403   -1.9304 C.3       1 <0>        -0.0379
     23 C15        -4.6268   -0.4439    1.4493 C.ar      1 <0>        -0.0600
     24 C16        -5.1143   -1.2890    0.4523 C.ar      1 <0>        -0.0614
     25 H1         -1.8691    1.8782   -1.0662 H         1 <0>         0.0709
     26 H2          0.2995    2.5283   -1.8196 H         1 <0>         0.1479
     27 H3         -0.8546    3.7402    0.2831 H         1 <0>         0.0264
     28 H4         -1.9822    2.7716    1.2419 H         1 <0>         0.0264
     29 H5         -0.2414    2.5659    1.4555 H         1 <0>         0.0264
     30 H6          2.3091   -1.2833    1.5177 H         1 <0>         0.0646
     31 H7          2.6816    2.2995   -1.8921 H         1 <0>         0.0651
     32 H8         -2.9692    0.7321    2.1378 H         1 <0>         0.0636
     33 H9         -4.7092   -2.2681   -1.4118 H         1 <0>         0.0621
     34 H10        -1.9004   -0.5405   -2.4828 H         1 <0>         0.0278
     35 H11        -1.2903   -1.9782   -1.6162 H         1 <0>         0.0278
     36 H12        -2.7310   -2.0885   -2.6286 H         1 <0>         0.0278
     37 H13        -5.2494   -0.1976    2.3045 H         1 <0>         0.0618
     38 H14        -6.1168   -1.6993    0.5307 H         1 <0>         0.0618
     39 H15         5.2513   -3.1887    0.4227 H         1 <0>         0.1442
     40 H16         6.2699   -2.2164   -0.5698 H         1 <0>         0.1442
@<TRIPOS>BOND
     1    1   19 1
     2    2    4 2
     3    2    5 2
     4    2    8 1
     5    2   17 1
     6    3   12 2
     7    6    9 1
     8    6   12 am
     9    6   13 1
    10    7    9 1
    11    7   10 1
    12    7   26 1
    13    8   39 1
    14    8   40 1
    15    9   14 1
    16    9   25 1
    17   10   11 ar
    18   10   16 ar
    19   11   12 1
    20   11   15 ar
    21   13   18 ar
    22   13   20 ar
    23   14   27 1
    24   14   28 1
    25   14   29 1
    26   15   17 ar
    27   15   30 1
    28   16   19 ar
    29   16   31 1
    30   17   19 ar
    31   18   21 ar
    32   18   22 1
    33   20   23 ar
    34   20   32 1
    35   21   24 ar
    36   21   33 1
    37   22   34 1
    38   22   35 1
    39   22   36 1
    40   23   24 ar
    41   23   37 1
    42   24   38 1
