@<TRIPOS>MOLECULE
DB00663
   57    60     0     0     0
SMALL
USER_CHARGES

@<TRIPOS>ATOM
      1 F1          1.6604   -0.0381    1.5664 F         1 <0>        -0.2377
      2 F2          3.4346   -3.2618   -0.7318 F         1 <0>        -0.2407
      3 O1         -2.7031    0.1071    2.0191 O.3       1 <0>        -0.3802
      4 O2          0.9660    2.4865   -0.8905 O.3       1 <0>        -0.3886
      5 O3         -3.7010    2.3101    0.2686 O.2       1 <0>        -0.2919
      6 O4         -6.2336    1.4623   -0.0249 O.3       1 <0>        -0.3874
      7 O5          6.4625   -0.6325    2.0917 O.2       1 <0>        -0.2879
      8 C1         -1.3956    0.6067   -0.0333 C.3       1 <0>         0.0096
      9 C2         -0.6225   -0.7270    0.0554 C.3       1 <0>        -0.0262
     10 C3          0.7960   -0.6602   -0.5335 C.3       1 <0>         0.0029
     11 C4          1.6254    0.4114    0.2535 C.3       1 <0>         0.1528
     12 C5         -2.7470    0.1527    0.5983 C.3       1 <0>         0.1340
     13 C6         -1.6073   -1.7541   -0.5023 C.3       1 <0>        -0.0436
     14 C7         -0.5985    1.6607    0.7630 C.3       1 <0>        -0.0151
     15 C8         -3.0007   -1.2456   -0.0440 C.3       1 <0>        -0.0071
     16 C9          0.8829    1.7801    0.3388 C.3       1 <0>         0.0910
     17 C10         3.1354    0.4606   -0.2093 C.3       1 <0>         0.0469
     18 C11         1.4675   -2.0423   -0.4616 C.3       1 <0>        -0.0117
     19 C12        -1.6158    1.0906   -1.4925 C.3       1 <0>        -0.0562
     20 C13         2.9225   -2.0083   -0.9069 C.3       1 <0>         0.1237
     21 C14         3.6887   -0.9692   -0.1266 C.2       1 <0>        -0.0198
     22 C15        -3.8843    1.0966    0.3524 C.2       1 <0>         0.1904
     23 C16        -3.7077   -2.2499    0.8612 C.3       1 <0>        -0.0594
     24 C17         3.3306    0.9679   -1.6563 C.3       1 <0>        -0.0492
     25 C18         3.9235    1.4095    0.6824 C.2       1 <0>        -0.0674
     26 C19         4.7543   -1.3105    0.6152 C.2       1 <0>        -0.0121
     27 C20        -5.2564    0.4719    0.2157 C.3       1 <0>         0.1052
     28 C21         4.9831    1.0730    1.4237 C.2       1 <0>        -0.0179
     29 C22         5.4809   -0.3143    1.4289 C.2       1 <0>         0.1788
     30 H1         -0.5015   -0.9837    1.1209 H         1 <0>         0.0311
     31 H2          0.7423   -0.3791   -1.5899 H         1 <0>         0.0336
     32 H3         -1.5568   -1.7896   -1.5971 H         1 <0>         0.0272
     33 H4         -1.3884   -2.7615   -0.1322 H         1 <0>         0.0272
     34 H5         -0.5931    1.3981    1.8275 H         1 <0>         0.0297
     35 H6         -1.0880    2.6384    0.6825 H         1 <0>         0.0297
     36 H7         -3.5802   -1.1635   -0.9703 H         1 <0>         0.0330
     37 H8          1.3732    2.4016    1.0968 H         1 <0>         0.0626
     38 H9          0.9288   -2.7618   -1.0900 H         1 <0>         0.0300
     39 H10         1.4117   -2.4415    0.5602 H         1 <0>         0.0300
     40 H11        -0.6954    1.0935   -2.0804 H         1 <0>         0.0236
     41 H12        -2.3273    0.4677   -2.0436 H         1 <0>         0.0236
     42 H13        -1.9994    2.1159   -1.5195 H         1 <0>         0.0236
     43 H14         2.9885   -1.7963   -1.9789 H         1 <0>         0.0699
     44 H15        -3.1164   -2.4570    1.7598 H         1 <0>         0.0233
     45 H16        -4.6988   -1.9284    1.1797 H         1 <0>         0.0233
     46 H17        -3.8344   -3.2023    0.3339 H         1 <0>         0.0233
     47 H18         4.3488    0.7626   -2.0123 H         1 <0>         0.0242
     48 H19         2.6433    0.4962   -2.3647 H         1 <0>         0.0242
     49 H20         3.1932    2.0513   -1.7410 H         1 <0>         0.0242
     50 H21        -2.5773    1.0085    2.3602 H         1 <0>         0.2108
     51 H22         3.6182    2.4534    0.6994 H         1 <0>         0.0583
     52 H23         0.5372    3.3502   -0.7668 H         1 <0>         0.2099
     53 H24         5.1182   -2.3313    0.6618 H         1 <0>         0.0656
     54 H25        -5.5249   -0.0027    1.1609 H         1 <0>         0.0637
     55 H26        -5.3231   -0.2344   -0.6100 H         1 <0>         0.0637
     56 H27         5.5059    1.8063    2.0265 H         1 <0>         0.0653
     57 H28        -6.0448    1.8551   -0.8943 H         1 <0>         0.2100
@<TRIPOS>BOND
     1    1   11 1
     2    2   20 1
     3    3   12 1
     4    3   50 1
     5    4   16 1
     6    4   52 1
     7    5   22 2
     8    6   27 1
     9    6   57 1
    10    7   29 2
    11    8    9 1
    12    8   12 1
    13    8   14 1
    14    8   19 1
    15    9   10 1
    16    9   13 1
    17    9   30 1
    18   10   11 1
    19   10   18 1
    20   10   31 1
    21   11   16 1
    22   11   17 1
    23   12   15 1
    24   12   22 1
    25   13   15 1
    26   13   32 1
    27   13   33 1
    28   14   16 1
    29   14   34 1
    30   14   35 1
    31   15   23 1
    32   15   36 1
    33   16   37 1
    34   17   21 1
    35   17   24 1
    36   17   25 1
    37   18   20 1
    38   18   38 1
    39   18   39 1
    40   19   40 1
    41   19   41 1
    42   19   42 1
    43   20   21 1
    44   20   43 1
    45   21   26 2
    46   22   27 1
    47   23   44 1
    48   23   45 1
    49   23   46 1
    50   24   47 1
    51   24   48 1
    52   24   49 1
    53   25   28 2
    54   25   51 1
    55   26   29 1
    56   26   53 1
    57   27   54 1
    58   27   55 1
    59   28   29 1
    60   28   56 1
