@<TRIPOS>MOLECULE
DB00351
   60    63     0     0     0
SMALL
USER_CHARGES

@<TRIPOS>ATOM
      1 O1          3.2423   -0.2683   -1.1323 O.3       1 <0>        -0.4500
      2 O2          5.1097    0.2340    1.5148 O.2       1 <0>        -0.2934
      3 O3         -6.4623    0.3759   -1.8777 O.2       1 <0>        -0.2927
      4 O4          5.3025   -1.2771   -0.8581 O.2       1 <0>        -0.2511
      5 C1          1.6910    0.3824    0.6539 C.3       1 <0>         0.0182
      6 C2          0.8260   -0.8808    0.4004 C.3       1 <0>        -0.0249
      7 C3         -0.6504   -0.6625    0.7627 C.3       1 <0>        -0.0153
      8 C4         -1.2016    0.4770   -0.1424 C.3       1 <0>        -0.0251
      9 C5          3.0850   -0.1840    0.2813 C.3       1 <0>         0.1759
     10 C6          1.1474    1.5142   -0.2352 C.3       1 <0>        -0.0430
     11 C7          1.6106   -1.9870    1.1034 C.3       1 <0>        -0.0450
     12 C8         -0.3549    1.7661    0.0033 C.3       1 <0>        -0.0482
     13 C9         -2.7497    0.6561    0.0429 C.3       1 <0>        -0.0029
     14 C10         3.0895   -1.6058    0.8854 C.3       1 <0>        -0.0049
     15 C11         1.6840    0.8493    2.1375 C.3       1 <0>        -0.0552
     16 C12        -1.4923   -1.9006    0.6236 C.2       1 <0>        -0.0772
     17 C13        -3.4457   -0.6864   -0.2751 C.2       1 <0>        -0.0353
     18 C14        -3.2498    1.7504   -0.9403 C.3       1 <0>        -0.0363
     19 C15         4.2442    0.6501    0.7359 C.2       1 <0>         0.1741
     20 C16        -2.7509   -1.9206    0.1443 C.2       1 <0>        -0.0503
     21 C17        -3.1113    1.0752    1.4880 C.3       1 <0>        -0.0552
     22 C18        -4.7646    1.8316   -1.0397 C.3       1 <0>         0.0107
     23 C19        -4.6285   -0.7347   -0.9185 C.2       1 <0>        -0.0153
     24 C20         4.3279    2.0567    0.1996 C.3       1 <0>        -0.0020
     25 C21        -5.3622    0.4844   -1.3379 C.2       1 <0>         0.1564
     26 C22        -3.4796   -3.2400    0.0726 C.3       1 <0>        -0.0397
     27 C23         4.4049   -0.8404   -1.5657 C.2       1 <0>         0.3049
     28 C24         4.4317   -0.8617   -3.0640 C.3       1 <0>         0.0333
     29 H1          0.8564   -1.1226   -0.6750 H         1 <0>         0.0313
     30 H2         -0.7123   -0.3754    1.8174 H         1 <0>         0.0349
     31 H3         -1.0555    0.1545   -1.1878 H         1 <0>         0.0315
     32 H4          1.2861    1.2719   -1.2959 H         1 <0>         0.0272
     33 H5          1.6801    2.4531   -0.0582 H         1 <0>         0.0272
     34 H6          1.3918   -2.9733    0.6809 H         1 <0>         0.0270
     35 H7          1.3780   -2.0280    2.1734 H         1 <0>         0.0270
     36 H8         -0.5046    2.2118    0.9918 H         1 <0>         0.0269
     37 H9         -0.6778    2.5158   -0.7270 H         1 <0>         0.0269
     38 H10         3.6021   -1.6574    1.8525 H         1 <0>         0.0308
     39 H11         3.5336   -2.3730    0.2455 H         1 <0>         0.0308
     40 H12         0.6802    1.0730    2.5071 H         1 <0>         0.0237
     41 H13         2.1100    0.1025    2.8148 H         1 <0>         0.0237
     42 H14         2.2665    1.7670    2.2672 H         1 <0>         0.0237
     43 H15        -1.0478   -2.8310    0.9689 H         1 <0>         0.0578
     44 H16        -2.8473    1.5508   -1.9433 H         1 <0>         0.0278
     45 H17        -2.8776    2.7382   -0.6438 H         1 <0>         0.0278
     46 H18        -4.1954    1.1486    1.6296 H         1 <0>         0.0238
     47 H19        -2.7567    0.3580    2.2347 H         1 <0>         0.0238
     48 H20        -2.6854    2.0524    1.7381 H         1 <0>         0.0238
     49 H21        -5.0316    2.5156   -1.8531 H         1 <0>         0.0345
     50 H22        -5.2108    2.2147   -0.1168 H         1 <0>         0.0345
     51 H23        -5.1279   -1.6667   -1.1609 H         1 <0>         0.0655
     52 H24         3.9731    2.1186   -0.8313 H         1 <0>         0.0307
     53 H25         3.7656    2.7403    0.8373 H         1 <0>         0.0307
     54 H26         5.3771    2.3690    0.1983 H         1 <0>         0.0307
     55 H27        -3.6966   -3.5082   -0.9670 H         1 <0>         0.0278
     56 H28        -4.4184   -3.1975    0.6355 H         1 <0>         0.0278
     57 H29        -2.8917   -4.0615    0.4978 H         1 <0>         0.0278
     58 H30         4.3850    0.1599   -3.4491 H         1 <0>         0.0342
     59 H31         3.5943   -1.4544   -3.4405 H         1 <0>         0.0342
     60 H32         5.3646   -1.3203   -3.4038 H         1 <0>         0.0342
@<TRIPOS>BOND
     1    1    9 1
     2    1   27 1
     3    2   19 2
     4    3   25 2
     5    4   27 2
     6    5    6 1
     7    5    9 1
     8    5   10 1
     9    5   15 1
    10    6    7 1
    11    6   11 1
    12    6   29 1
    13    7    8 1
    14    7   16 1
    15    7   30 1
    16    8   12 1
    17    8   13 1
    18    8   31 1
    19    9   14 1
    20    9   19 1
    21   10   12 1
    22   10   32 1
    23   10   33 1
    24   11   14 1
    25   11   34 1
    26   11   35 1
    27   12   36 1
    28   12   37 1
    29   13   17 1
    30   13   18 1
    31   13   21 1
    32   14   38 1
    33   14   39 1
    34   15   40 1
    35   15   41 1
    36   15   42 1
    37   16   20 2
    38   16   43 1
    39   17   20 1
    40   17   23 2
    41   18   22 1
    42   18   44 1
    43   18   45 1
    44   19   24 1
    45   20   26 1
    46   21   46 1
    47   21   47 1
    48   21   48 1
    49   22   25 1
    50   22   49 1
    51   22   50 1
    52   23   25 1
    53   23   51 1
    54   24   52 1
    55   24   53 1
    56   24   54 1
    57   26   55 1
    58   26   56 1
    59   26   57 1
    60   27   28 1
    61   28   58 1
    62   28   59 1
    63   28   60 1
