@<TRIPOS>MOLECULE
DB00816
   32    32     0     0     0
SMALL
USER_CHARGES

@<TRIPOS>ATOM
      1 O1          0.1109    0.6494   -2.1111 O.3       1 <0>        -0.3859
      2 O2          3.5768   -2.6853   -0.1827 O.3       1 <0>        -0.5066
      3 O3          4.8711    1.7978    0.8237 O.3       1 <0>        -0.5066
      4 N1         -2.0839    0.7046   -0.2487 N.3       1 <0>        -0.3110
      5 C1          0.3208    0.9181   -0.7255 C.3       1 <0>         0.0928
      6 C2         -0.7588    0.2300    0.1190 C.3       1 <0>         0.0263
      7 C3         -3.1116    0.0456    0.5559 C.3       1 <0>         0.0021
      8 C4          1.7057    0.4350   -0.3546 C.ar      1 <0>        -0.0111
      9 C5         -3.0570   -1.4654    0.3496 C.3       1 <0>        -0.0499
     10 C6         -4.4825    0.6004    0.1821 C.3       1 <0>        -0.0499
     11 C7          2.6518    1.3536    0.0656 C.ar      1 <0>        -0.0143
     12 C8          1.9968   -0.9154   -0.4434 C.ar      1 <0>        -0.0143
     13 C9          3.2737   -1.3609   -0.1017 C.ar      1 <0>         0.1207
     14 C10         3.9287    0.9082    0.4076 C.ar      1 <0>         0.1207
     15 C11         4.2397   -0.4491    0.3239 C.ar      1 <0>         0.0213
     16 H1          0.2546    2.0054   -0.5940 H         1 <0>         0.0656
     17 H2         -0.5642    0.4077    1.1842 H         1 <0>         0.0453
     18 H3         -0.6898   -0.8443   -0.0683 H         1 <0>         0.0453
     19 H4         -2.9478    0.2642    1.6190 H         1 <0>         0.0455
     20 H5         -2.1372    1.7142   -0.1165 H         1 <0>         0.1223
     21 H6         -3.9549   -1.9377    0.7658 H         1 <0>         0.0245
     22 H7         -3.0160   -1.7316   -0.7129 H         1 <0>         0.0245
     23 H8         -2.2081   -1.9284    0.8627 H         1 <0>         0.0245
     24 H9         -4.5281    1.6827    0.3469 H         1 <0>         0.0245
     25 H10        -5.2670    0.1406    0.7928 H         1 <0>         0.0245
     26 H11        -4.7198    0.4078   -0.8704 H         1 <0>         0.0245
     27 H12         2.4159    2.4119    0.1331 H         1 <0>         0.0658
     28 H13         1.2565   -1.6302   -0.7909 H         1 <0>         0.0658
     29 H14        -0.7959    0.9272   -2.3264 H         1 <0>         0.2103
     30 H15         5.2328   -0.8031    0.5893 H         1 <0>         0.0691
     31 H16         2.7928   -3.1705   -0.4925 H         1 <0>         0.2921
     32 H17         5.6941    1.3173    1.0184 H         1 <0>         0.2921
@<TRIPOS>BOND
     1    1    5 1
     2    1   29 1
     3    2   13 1
     4    2   31 1
     5    3   14 1
     6    3   32 1
     7    4    6 1
     8    4    7 1
     9    4   20 1
    10    5    6 1
    11    5    8 1
    12    5   16 1
    13    6   17 1
    14    6   18 1
    15    7    9 1
    16    7   10 1
    17    7   19 1
    18    8   11 ar
    19    8   12 ar
    20    9   21 1
    21    9   22 1
    22    9   23 1
    23   10   24 1
    24   10   25 1
    25   10   26 1
    26   11   14 ar
    27   11   27 1
    28   12   13 ar
    29   12   28 1
    30   13   15 ar
    31   14   15 ar
    32   15   30 1
