@<TRIPOS>MOLECULE
DB00888
   19    18     0     0     0
SMALL
USER_CHARGES

@<TRIPOS>ATOM
      1 Cl1         3.9136   -0.8722   -0.1804 Cl        1 <0>        -0.1241
      2 Cl2        -3.9061   -0.9054   -0.1410 Cl        1 <0>        -0.1241
      3 N1          0.0024   -0.0326    0.2898 N.3       1 <0>        -0.3031
      4 C1          1.2044   -0.7376   -0.1536 C.3       1 <0>         0.0121
      5 C2         -1.1981   -0.7504   -0.1376 C.3       1 <0>         0.0121
      6 C3         -0.0084    1.3351   -0.2281 C.3       1 <0>        -0.0127
      7 C4          2.4450   -0.0312    0.3710 C.3       1 <0>         0.0353
      8 C5         -2.4407   -0.0275    0.3586 C.3       1 <0>         0.0353
      9 H1          1.2397   -0.8056   -1.2491 H         1 <0>         0.0438
     10 H2          1.1930   -1.7637    0.2359 H         1 <0>         0.0438
     11 H3         -1.1862   -1.7644    0.2820 H         1 <0>         0.0438
     12 H4         -1.2301   -0.8498   -1.2309 H         1 <0>         0.0438
     13 H5         -0.8471    1.9216    0.1567 H         1 <0>         0.0391
     14 H6         -0.0351    1.3659   -1.3236 H         1 <0>         0.0391
     15 H7          0.8469    1.9246    0.1115 H         1 <0>         0.0391
     16 H8          2.5684    0.9844   -0.0051 H         1 <0>         0.0442
     17 H9          2.4646   -0.0086    1.4651 H         1 <0>         0.0442
     18 H10        -2.4557    0.0511    1.4502 H         1 <0>         0.0442
     19 H11        -2.5706    0.9663   -0.0714 H         1 <0>         0.0442
@<TRIPOS>BOND
     1    1    7 1
     2    2    8 1
     3    3    4 1
     4    3    5 1
     5    3    6 1
     6    4    7 1
     7    4    9 1
     8    4   10 1
     9    5    8 1
    10    5   11 1
    11    5   12 1
    12    6   13 1
    13    6   14 1
    14    6   15 1
    15    7   16 1
    16    7   17 1
    17    8   18 1
    18    8   19 1
