@<TRIPOS>MOLECULE
DB00123
   24    23     0     0     0
SMALL
USER_CHARGES

@<TRIPOS>ATOM
      1 O1         -3.4642    1.6614    0.4140 O.3       1 <0>        -0.4795
      2 O2         -4.2055   -0.1118   -0.7869 O.2       1 <0>        -0.2493
      3 N1         -2.1606   -1.6867   -0.1579 N.3       1 <0>        -0.3184
      4 N2          4.2016    0.5018   -0.1280 N.3       1 <0>        -0.3300
      5 C1          0.4985   -0.2786    0.2929 C.3       1 <0>        -0.0500
      6 C2         -0.8133    0.3907   -0.1394 C.3       1 <0>        -0.0273
      7 C3          1.7499    0.4855   -0.1466 C.3       1 <0>        -0.0406
      8 C4         -2.0848   -0.3154    0.3481 C.3       1 <0>         0.1032
      9 C5          3.0203   -0.2431    0.2915 C.3       1 <0>        -0.0069
     10 C6         -3.3548    0.3983   -0.0666 C.2       1 <0>         0.3217
     11 H1          0.5423   -1.2943   -0.1183 H         1 <0>         0.0266
     12 H2          0.5035   -0.3781    1.3856 H         1 <0>         0.0266
     13 H3         -0.8330    0.4696   -1.2348 H         1 <0>         0.0286
     14 H4         -0.8155    1.4237    0.2322 H         1 <0>         0.0286
     15 H5          1.7302    1.4947    0.2833 H         1 <0>         0.0277
     16 H6          1.7414    0.5985   -1.2379 H         1 <0>         0.0277
     17 H7         -2.0834   -0.3637    1.4433 H         1 <0>         0.0574
     18 H8          3.0513   -1.2475   -0.1447 H         1 <0>         0.0422
     19 H9          3.0355   -0.3517    1.3813 H         1 <0>         0.0422
     20 H10        -2.1982   -1.6810   -1.1763 H         1 <0>         0.1190
     21 H11        -3.0194   -2.1303    0.1648 H         1 <0>         0.1190
     22 H12         4.2125    0.5845   -1.1437 H         1 <0>         0.1182
     23 H13         5.0386   -0.0218    0.1250 H         1 <0>         0.1182
     24 H14        -4.2930    2.0952    0.1190 H         1 <0>         0.2951
@<TRIPOS>BOND
     1    1   10 1
     2    1   24 1
     3    2   10 2
     4    3    8 1
     5    3   20 1
     6    3   21 1
     7    4    9 1
     8    4   22 1
     9    4   23 1
    10    5    6 1
    11    5    7 1
    12    5   11 1
    13    5   12 1
    14    6    8 1
    15    6   13 1
    16    6   14 1
    17    7    9 1
    18    7   15 1
    19    7   16 1
    20    8   10 1
    21    8   17 1
    22    9   18 1
    23    9   19 1
