@<TRIPOS>MOLECULE
DB00272
   17    17     0     0     0
SMALL
USER_CHARGES

@<TRIPOS>ATOM
      1 N1         -1.4320    1.2164    0.0764 N.pl3     1 <0>        -0.2816
      2 N2          2.9587   -0.1284   -0.3390 N.3       1 <0>        -0.3296
      3 N3         -2.7378    1.0511   -0.1950 N.2       1 <0>        -0.1821
      4 C1          0.6794    0.0132    0.5906 C.3       1 <0>         0.0014
      5 C2         -0.7870    0.0482    0.2752 C.2       1 <0>         0.0372
      6 C3          1.5395   -0.0724   -0.6727 C.3       1 <0>        -0.0015
      7 C4         -1.6901   -0.9518    0.1337 C.2       1 <0>        -0.0212
      8 C5         -2.8895   -0.2754   -0.1588 C.2       1 <0>         0.0494
      9 H1          0.9504    0.9052    1.1705 H         1 <0>         0.0340
     10 H2          0.8798   -0.8514    1.2370 H         1 <0>         0.0340
     11 H3          1.3588    0.7951   -1.3177 H         1 <0>         0.0425
     12 H4          1.2762   -0.9627   -1.2552 H         1 <0>         0.0425
     13 H5         -1.5246   -2.0152    0.2239 H         1 <0>         0.0651
     14 H6         -1.0627    2.1591    0.1053 H         1 <0>         0.1885
     15 H7         -3.8678   -0.6940   -0.3472 H         1 <0>         0.0848
     16 H8          3.1356   -0.9306    0.2646 H         1 <0>         0.1182
     17 H9          3.2129    0.6934    0.2081 H         1 <0>         0.1182
@<TRIPOS>BOND
     1    1    3 1
     2    1    5 2
     3    1   14 1
     4    2    6 1
     5    2   16 1
     6    2   17 1
     7    3    8 1
     8    4    5 1
     9    4    6 1
    10    4    9 1
    11    4   10 1
    12    5    7 1
    13    6   11 1
    14    6   12 1
    15    7    8 2
    16    7   13 1
    17    8   15 1
