@<TRIPOS>MOLECULE
DB00120
   23    23     0     0     0
SMALL
USER_CHARGES

@<TRIPOS>ATOM
      1 O1         -1.2998    1.9018    1.2504 O.3       1 <0>        -0.4795
      2 O2         -3.0603    1.7210   -0.1686 O.2       1 <0>        -0.2492
      3 N1         -3.0626   -0.9921    0.2438 N.3       1 <0>        -0.3181
      4 C1         -0.8498   -0.6344   -0.7515 C.3       1 <0>        -0.0020
      5 C2         -1.7969   -0.2806    0.4058 C.3       1 <0>         0.1072
      6 C3          0.6003   -0.3541   -0.4306 C.ar      1 <0>        -0.0454
      7 C4          1.1310    0.8907   -0.7260 C.ar      1 <0>        -0.0585
      8 C5          1.3695   -1.3471    0.1529 C.ar      1 <0>        -0.0585
      9 C6         -2.1320    1.2007    0.4371 C.2       1 <0>         0.3220
     10 C7          2.4692    1.1498   -0.4296 C.ar      1 <0>        -0.0615
     11 C8          2.7077   -1.0878    0.4493 C.ar      1 <0>        -0.0615
     12 C9          3.2575    0.1605    0.1580 C.ar      1 <0>        -0.0617
     13 H1         -1.1328   -0.0944   -1.6656 H         1 <0>         0.0334
     14 H2         -0.9372   -1.7005   -1.0046 H         1 <0>         0.0334
     15 H3         -1.3789   -0.5680    1.3775 H         1 <0>         0.0577
     16 H4          0.5267    1.6673   -1.1859 H         1 <0>         0.0620
     17 H5          0.9497   -2.3214    0.3859 H         1 <0>         0.0620
     18 H6         -2.8940   -1.9974    0.2634 H         1 <0>         0.1190
     19 H7         -3.4555   -0.7949   -0.6765 H         1 <0>         0.1190
     20 H8          2.8974    2.1217   -0.6568 H         1 <0>         0.0618
     21 H9          3.3215   -1.8579    0.9075 H         1 <0>         0.0618
     22 H10         4.2994    0.3623    0.3889 H         1 <0>         0.0618
     23 H11        -1.5302    2.8548    1.2753 H         1 <0>         0.2951
@<TRIPOS>BOND
     1    1    9 1
     2    1   23 1
     3    2    9 2
     4    3    5 1
     5    3   18 1
     6    3   19 1
     7    4    5 1
     8    4    6 1
     9    4   13 1
    10    4   14 1
    11    5    9 1
    12    5   15 1
    13    6    7 ar
    14    6    8 ar
    15    7   10 ar
    16    7   16 1
    17    8   11 ar
    18    8   17 1
    19   10   12 ar
    20   10   20 1
    21   11   12 ar
    22   11   21 1
    23   12   22 1
