@<TRIPOS>MOLECULE
DB00772
   38    37     0     0     0
SMALL
USER_CHARGES

@<TRIPOS>ATOM
      1 S1          0.2718   -1.6988    1.0469 S.3       1 <0>        -0.0586
      2 S2          2.8477   -4.0024    0.4756 S.2       1 <0>         0.0032
      3 P1          2.1820   -2.1703    0.2522 P.3       1 <0>         0.2294
      4 O1          1.5502    1.4061   -0.3630 O.3       1 <0>        -0.4641
      5 O2         -3.8421    0.3049    0.4196 O.3       1 <0>        -0.4649
      6 O3          3.2355   -1.0604    0.8287 O.3       1 <0>        -0.3267
      7 O4          2.1873   -1.6954   -1.3127 O.3       1 <0>        -0.3267
      8 O5          1.1245    1.3172    1.8999 O.2       1 <0>        -0.2496
      9 O6         -2.5299   -1.1329   -0.8179 O.2       1 <0>        -0.2508
     10 C1         -0.1409   -0.0680    0.3358 C.3       1 <0>         0.1206
     11 C2         -1.5270    0.4017    0.7845 C.3       1 <0>         0.0674
     12 C3          0.9079    0.9459    0.7539 C.2       1 <0>         0.3212
     13 C4         -2.6604   -0.2572    0.0262 C.2       1 <0>         0.3087
     14 C5          2.5516    2.4025   -0.1330 C.3       1 <0>         0.0897
     15 C6         -5.0116   -0.1987   -0.2338 C.3       1 <0>         0.0896
     16 C7          3.1626    2.8027   -1.4590 C.3       1 <0>        -0.0306
     17 C8         -6.2279    0.5204    0.3094 C.3       1 <0>        -0.0306
     18 C9          3.5835   -1.0482    2.2033 C.3       1 <0>         0.0441
     19 C10         1.3933   -2.3751   -2.2708 C.3       1 <0>         0.0441
     20 H1         -0.1210   -0.1726   -0.7547 H         1 <0>         0.0537
     21 H2         -1.6758    0.2380    1.8585 H         1 <0>         0.0394
     22 H3         -1.6128    1.4806    0.5985 H         1 <0>         0.0394
     23 H4          2.0936    3.2770    0.3425 H         1 <0>         0.0694
     24 H5          3.3279    1.9957    0.5244 H         1 <0>         0.0694
     25 H6         -4.9303   -0.0254   -1.3126 H         1 <0>         0.0694
     26 H7         -5.1016   -1.2740   -0.0437 H         1 <0>         0.0694
     27 H8          3.9344    3.5647   -1.3201 H         1 <0>         0.0262
     28 H9          2.3950    3.1952   -2.1342 H         1 <0>         0.0262
     29 H10         3.6080    1.9340   -1.9550 H         1 <0>         0.0262
     30 H11        -7.1422    0.1590   -0.1695 H         1 <0>         0.0262
     31 H12        -6.1440    1.5994    0.1429 H         1 <0>         0.0262
     32 H13        -6.3126    0.3714    1.3910 H         1 <0>         0.0262
     33 H14         3.9713   -0.0578    2.4543 H         1 <0>         0.0528
     34 H15         4.3635   -1.7901    2.3913 H         1 <0>         0.0528
     35 H16         2.7142   -1.2563    2.8316 H         1 <0>         0.0528
     36 H17         1.2191   -1.7044   -3.1160 H         1 <0>         0.0528
     37 H18         0.4291   -2.6680   -1.8484 H         1 <0>         0.0528
     38 H19         1.9260   -3.2603   -2.6265 H         1 <0>         0.0528
@<TRIPOS>BOND
     1    1    3 1
     2    1   10 1
     3    2    3 2
     4    3    6 1
     5    3    7 1
     6    4   12 1
     7    4   14 1
     8    5   13 1
     9    5   15 1
    10    6   18 1
    11    7   19 1
    12    8   12 2
    13    9   13 2
    14   10   11 1
    15   10   12 1
    16   10   20 1
    17   11   13 1
    18   11   21 1
    19   11   22 1
    20   14   16 1
    21   14   23 1
    22   14   24 1
    23   15   17 1
    24   15   25 1
    25   15   26 1
    26   16   27 1
    27   16   28 1
    28   16   29 1
    29   17   30 1
    30   17   31 1
    31   17   32 1
    32   18   33 1
    33   18   34 1
    34   18   35 1
    35   19   36 1
    36   19   37 1
    37   19   38 1
