@<TRIPOS>MOLECULE
DB00631
   31    33     0     0     0
SMALL
USER_CHARGES

@<TRIPOS>ATOM
      1 Cl1        -1.8473   -3.6369    0.4268 Cl        1 <0>        -0.0409
      2 F1          1.0268    0.5144    1.7595 F         1 <0>        -0.2380
      3 O1          1.3079   -0.1085   -1.1590 O.3       1 <0>        -0.3453
      4 O2          3.8674    1.4183   -0.1484 O.3       1 <0>        -0.3861
      5 O3          1.8629   -2.8289   -0.9037 O.3       1 <0>        -0.3924
      6 N1         -0.5564    1.1483   -0.3851 N.pl3     1 <0>        -0.2852
      7 N2         -2.6282    1.9814   -0.2958 N.2       1 <0>        -0.2306
      8 N3         -1.0435   -1.2016   -0.0021 N.2       1 <0>        -0.1976
      9 N4         -3.4366   -1.5800    0.2908 N.2       1 <0>        -0.2006
     10 N5         -5.0391    0.1943    0.1975 N.pl3     1 <0>        -0.3413
     11 C1          0.8946    1.1134   -0.5235 C.3       1 <0>         0.1718
     12 C2          2.9570    0.5046    0.4558 C.3       1 <0>         0.1187
     13 C3          1.6645    1.2129    0.7834 C.3       1 <0>         0.1740
     14 C4          2.5333   -0.5636   -0.5493 C.3       1 <0>         0.1129
     15 C5          2.2574   -1.9121    0.1018 C.3       1 <0>         0.0730
     16 C6         -1.3884    0.0862   -0.1509 C.2       1 <0>         0.1689
     17 C7         -1.3531    2.2641   -0.4630 C.cat     1 <0>         0.1004
     18 C8         -2.6648    0.6236   -0.0997 C.2       1 <0>         0.1474
     19 C9         -3.7118   -0.2630    0.1307 C.2       1 <0>         0.1487
     20 C10        -2.1386   -1.9618    0.2156 C.2       1 <0>         0.2264
     21 H1          1.1765    1.9278   -1.2022 H         1 <0>         0.0869
     22 H2          3.4484    0.0763    1.3349 H         1 <0>         0.0650
     23 H3          1.7783    2.2464    1.1225 H         1 <0>         0.0724
     24 H4          3.2648   -0.6815   -1.3568 H         1 <0>         0.0647
     25 H5          1.4581   -1.8599    0.8465 H         1 <0>         0.0584
     26 H6          3.1570   -2.3032    0.5861 H         1 <0>         0.0584
     27 H7         -0.9462    3.2500   -0.6413 H         1 <0>         0.1030
     28 H8          4.0680    2.1068    0.5084 H         1 <0>         0.2100
     29 H9          1.0608   -2.4744   -1.3245 H         1 <0>         0.2095
     30 H10        -5.2476    1.1763    0.0786 H         1 <0>         0.1438
     31 H11        -5.7822   -0.4699    0.3663 H         1 <0>         0.1438
@<TRIPOS>BOND
     1    1   20 1
     2    2   13 1
     3    3   11 1
     4    3   14 1
     5    4   12 1
     6    4   28 1
     7    5   15 1
     8    5   29 1
     9    6   11 1
    10    6   16 1
    11    6   17 2
    12    7   17 1
    13    7   18 2
    14    8   16 2
    15    8   20 1
    16    9   19 1
    17    9   20 2
    18   10   19 1
    19   10   30 1
    20   10   31 1
    21   11   13 1
    22   11   21 1
    23   12   13 1
    24   12   14 1
    25   12   22 1
    26   13   23 1
    27   14   15 1
    28   14   24 1
    29   15   25 1
    30   15   26 1
    31   16   18 1
    32   17   27 1
    33   18   19 2
