@<TRIPOS>MOLECULE
DB00135
   24    24     0     0     0
SMALL
USER_CHARGES

@<TRIPOS>ATOM
      1 O1         -1.3760    1.9445    1.2434 O.3       1 <0>        -0.4795
      2 O2          4.3717    0.0760    0.3979 O.3       1 <0>        -0.5068
      3 O3         -3.1567    1.8706   -0.1598 O.2       1 <0>        -0.2492
      4 N1         -3.3304   -0.8346    0.2676 N.3       1 <0>        -0.3181
      5 C1         -1.1079   -0.6255   -0.7480 C.3       1 <0>        -0.0020
      6 C2         -2.0200   -0.2054    0.4150 C.3       1 <0>         0.1072
      7 C3          0.3599   -0.4376   -0.4409 C.ar      1 <0>        -0.0451
      8 C4          0.9670    0.7684   -0.7482 C.ar      1 <0>        -0.0551
      9 C5          1.0681   -1.4756    0.1416 C.ar      1 <0>        -0.0551
     10 C6         -2.2586    1.2946    0.4410 C.2       1 <0>         0.3220
     11 C7          2.3218    0.9417   -0.4649 C.ar      1 <0>        -0.0199
     12 C8          2.4229   -1.3023    0.4251 C.ar      1 <0>        -0.0199
     13 C9          3.0498   -0.0936    0.1218 C.ar      1 <0>         0.1169
     14 H1         -1.3636   -0.0729   -1.6627 H         1 <0>         0.0334
     15 H2         -1.2660   -1.6849   -0.9946 H         1 <0>         0.0334
     16 H3         -1.6131   -0.5144    1.3849 H         1 <0>         0.0577
     17 H4          0.4101    1.5799   -1.2076 H         1 <0>         0.0621
     18 H5          0.5880   -2.4193    0.3836 H         1 <0>         0.0621
     19 H6         -3.2266   -1.8486    0.2915 H         1 <0>         0.1190
     20 H7         -3.7177   -0.6171   -0.6505 H         1 <0>         0.1190
     21 H8          2.7985    1.8879   -0.7066 H         1 <0>         0.0654
     22 H9          2.9845   -2.1122    0.8826 H         1 <0>         0.0654
     23 H10        -1.5444    2.9107    1.2650 H         1 <0>         0.2951
     24 H11         4.6389    0.9699    0.1227 H         1 <0>         0.2921
@<TRIPOS>BOND
     1    1   10 1
     2    1   23 1
     3    2   13 1
     4    2   24 1
     5    3   10 2
     6    4    6 1
     7    4   19 1
     8    4   20 1
     9    5    6 1
    10    5    7 1
    11    5   14 1
    12    5   15 1
    13    6   10 1
    14    6   16 1
    15    7    8 ar
    16    7    9 ar
    17    8   11 ar
    18    8   17 1
    19    9   12 ar
    20    9   18 1
    21   11   13 ar
    22   11   21 1
    23   12   13 ar
    24   12   22 1
