@<TRIPOS>MOLECULE
DB00634
   24    24     0     0     0
SMALL
USER_CHARGES

@<TRIPOS>ATOM
      1 S1         -1.1420    1.3775   -1.1423 S.o2      1 <0>         0.0744
      2 O1         -1.1331    2.8220   -0.9517 O.2       1 <0>        -0.1499
      3 O2         -1.4312    0.8281   -2.4599 O.2       1 <0>        -0.1499
      4 O3         -2.4947   -1.4328   -0.9993 O.2       1 <0>        -0.2745
      5 N1         -2.2179    0.6771   -0.0062 N.am      1 <0>        -0.1857
      6 N2          4.0872   -0.8336    0.6253 N.pl3     1 <0>        -0.3580
      7 C1          0.3935    0.7283   -0.6235 C.ar      1 <0>         0.1087
      8 C2          1.1610    1.4182    0.3150 C.ar      1 <0>        -0.0333
      9 C3          0.8528   -0.4802   -1.1475 C.ar      1 <0>        -0.0333
     10 C4          2.8471   -0.3086    0.2056 C.ar      1 <0>         0.0247
     11 C5          2.3879    0.8997    0.7294 C.ar      1 <0>        -0.0392
     12 C6          2.0797   -0.9986   -0.7329 C.ar      1 <0>        -0.0392
     13 C7         -2.7701   -0.6392   -0.1065 C.2       1 <0>         0.2289
     14 C8         -3.7343   -0.9668    0.9975 C.3       1 <0>         0.0136
     15 H1          0.8192    2.3574    0.7405 H         1 <0>         0.0638
     16 H2          0.2714   -1.0377   -1.8763 H         1 <0>         0.0638
     17 H3         -2.5303    1.2795    0.7665 H         1 <0>         0.1765
     18 H4          2.9762    1.4459    1.4625 H         1 <0>         0.0636
     19 H5          2.4262   -1.9419   -1.1475 H         1 <0>         0.0636
     20 H6         -4.5745   -0.2678    0.9733 H         1 <0>         0.0323
     21 H7         -4.1145   -1.9836    0.8658 H         1 <0>         0.0323
     22 H8         -3.2259   -0.9007    1.9631 H         1 <0>         0.0323
     23 H9          4.6450   -0.3332    1.3045 H         1 <0>         0.1423
     24 H10         4.4212   -1.7090    0.2446 H         1 <0>         0.1423
@<TRIPOS>BOND
     1    1    2 2
     2    1    3 2
     3    1    5 1
     4    1    7 1
     5    4   13 2
     6    5   13 am
     7    5   17 1
     8    6   10 1
     9    6   23 1
    10    6   24 1
    11    7    8 ar
    12    7    9 ar
    13    8   11 ar
    14    8   15 1
    15    9   12 ar
    16    9   16 1
    17   10   11 ar
    18   10   12 ar
    19   11   18 1
    20   12   19 1
    21   13   14 1
    22   14   20 1
    23   14   21 1
    24   14   22 1
