@<TRIPOS>MOLECULE
DB00195
   51    52     0     0     0
SMALL
USER_CHARGES

@<TRIPOS>ATOM
      1 O1          3.7729   -0.3333    0.0861 O.3       1 <0>        -0.3792
      2 O2         -2.1713   -2.2670    0.4907 O.3       1 <0>        -0.4894
      3 O3         -4.8459   -1.9613    1.1868 O.3       1 <0>        -0.3872
      4 N1         -3.0457    1.1424    0.2720 N.3       1 <0>        -0.3112
      5 C1          4.1274    1.8089    1.0555 C.3       1 <0>        -0.0175
      6 C2          3.5507    3.1794    0.8792 C.3       1 <0>        -0.0478
      7 C3          2.7304    2.0942    1.5125 C.3       1 <0>        -0.0478
      8 C4          4.3342    0.9514   -0.1455 C.3       1 <0>         0.0505
      9 C5          3.9468   -1.1884   -1.0365 C.3       1 <0>         0.0516
     10 C6          3.3273   -2.5574   -0.7391 C.3       1 <0>        -0.0041
     11 C7          1.8740   -2.4803   -0.4142 C.ar      1 <0>        -0.0450
     12 C8         -3.9207   -0.8892    1.3890 C.3       1 <0>         0.1015
     13 C9         -3.9874    0.0357    0.1713 C.3       1 <0>         0.0254
     14 C10        -3.0895    1.9739   -0.9233 C.3       1 <0>         0.0021
     15 C11        -2.5330   -1.4819    1.6228 C.3       1 <0>         0.1166
     16 C12         0.9257   -2.5770   -1.4326 C.ar      1 <0>        -0.0550
     17 C13         1.4630   -2.3120    0.9079 C.ar      1 <0>        -0.0550
     18 C14        -0.8370   -2.3372    0.1918 C.ar      1 <0>         0.1206
     19 C15        -2.1291    3.1476   -0.7607 C.3       1 <0>        -0.0499
     20 C16        -2.7398    1.1462   -2.1568 C.3       1 <0>        -0.0499
     21 C17        -0.4339   -2.5051   -1.1287 C.ar      1 <0>        -0.0197
     22 C18         0.1036   -2.2403    1.2119 C.ar      1 <0>        -0.0197
     23 H1          4.8785    1.6527    1.8192 H         1 <0>         0.0323
     24 H2          3.9233    3.9687    1.5210 H         1 <0>         0.0269
     25 H3          3.2670    3.5097   -0.1123 H         1 <0>         0.0269
     26 H4          1.9006    1.6948    0.9420 H         1 <0>         0.0269
     27 H5          2.5506    2.1553    2.5788 H         1 <0>         0.0269
     28 H6          5.4086    0.8559   -0.3403 H         1 <0>         0.0562
     29 H7          3.8644    1.3943   -1.0321 H         1 <0>         0.0562
     30 H8          3.4664   -0.7416   -1.9153 H         1 <0>         0.0563
     31 H9          5.0159   -1.3119   -1.2448 H         1 <0>         0.0563
     32 H10         3.4881   -3.2257   -1.5940 H         1 <0>         0.0335
     33 H11         3.8569   -3.0162    0.1063 H         1 <0>         0.0335
     34 H12        -4.2336   -0.3481    2.2899 H         1 <0>         0.0640
     35 H13        -5.0127    0.4156    0.0705 H         1 <0>         0.0450
     36 H14        -3.8087   -0.5910   -0.7084 H         1 <0>         0.0450
     37 H15        -4.0970    2.3901   -1.0512 H         1 <0>         0.0455
     38 H16        -3.2602    1.7022    1.0965 H         1 <0>         0.1223
     39 H17        -1.8274   -0.6653    1.8181 H         1 <0>         0.0723
     40 H18        -2.5655   -2.1468    2.4942 H         1 <0>         0.0723
     41 H19         1.2333   -2.7059   -2.4669 H         1 <0>         0.0621
     42 H20         2.1910   -2.2422    1.7120 H         1 <0>         0.0621
     43 H21        -1.0948    2.8060   -0.6387 H         1 <0>         0.0245
     44 H22        -2.1648    3.8029   -1.6378 H         1 <0>         0.0245
     45 H23        -2.3907    3.7534    0.1143 H         1 <0>         0.0245
     46 H24        -3.5558    0.4852   -2.4648 H         1 <0>         0.0245
     47 H25        -1.8369    0.5442   -2.0021 H         1 <0>         0.0245
     48 H26        -2.5457    1.8039   -3.0123 H         1 <0>         0.0245
     49 H27        -1.1695   -2.5788   -1.9247 H         1 <0>         0.0654
     50 H28        -0.1740   -2.1412    2.2569 H         1 <0>         0.0654
     51 H29        -5.7302   -1.5697    1.0856 H         1 <0>         0.2100
@<TRIPOS>BOND
     1    1    8 1
     2    1    9 1
     3    2   15 1
     4    2   18 1
     5    3   12 1
     6    3   51 1
     7    4   13 1
     8    4   14 1
     9    4   38 1
    10    5    6 1
    11    5    7 1
    12    5    8 1
    13    5   23 1
    14    6    7 1
    15    6   24 1
    16    6   25 1
    17    7   26 1
    18    7   27 1
    19    8   28 1
    20    8   29 1
    21    9   10 1
    22    9   30 1
    23    9   31 1
    24   10   11 1
    25   10   32 1
    26   10   33 1
    27   11   16 ar
    28   11   17 ar
    29   12   13 1
    30   12   15 1
    31   12   34 1
    32   13   35 1
    33   13   36 1
    34   14   19 1
    35   14   20 1
    36   14   37 1
    37   15   39 1
    38   15   40 1
    39   16   21 ar
    40   16   41 1
    41   17   22 ar
    42   17   42 1
    43   18   21 ar
    44   18   22 ar
    45   19   43 1
    46   19   44 1
    47   19   45 1
    48   20   46 1
    49   20   47 1
    50   20   48 1
    51   21   49 1
    52   22   50 1
