@<TRIPOS>MOLECULE
DB00863
   43    43     0     0     0
SMALL
USER_CHARGES

@<TRIPOS>ATOM
      1 S1          0.5513   -2.1558   -1.2803 S.3       1 <0>        -0.1493
      2 O1         -2.1195   -1.0165    0.5883 O.3       1 <0>        -0.4624
      3 O2          4.0998    2.7552    2.1126 O.3       1 <0>        -0.5763
      4 O3          5.9807    1.6365    2.3607 O.2       1 <0>         0.0411
      5 N1         -4.0898    1.3658   -0.2517 N.3       1 <0>        -0.3013
      6 N2          3.0935   -0.4774   -0.4264 N.pl3     1 <0>        -0.2327
      7 N3          3.8058    1.8271   -0.5379 N.pl3     1 <0>        -0.2362
      8 N4          4.7964    1.7347    2.0066 N.pl3     1 <0>         0.0799
      9 C1         -4.0596    0.3787    0.8407 C.3       1 <0>         0.0566
     10 C2         -3.4634   -0.8983    0.4238 C.2       1 <0>         0.1192
     11 C3         -1.7812   -2.2558    0.1456 C.2       1 <0>         0.1151
     12 C4         -0.3264   -2.6173    0.2302 C.3       1 <0>         0.0519
     13 C5         -3.9867   -2.0488   -0.1186 C.2       1 <0>        -0.0191
     14 C6         -2.8945   -2.9303   -0.2995 C.2       1 <0>        -0.0196
     15 C7          2.2097   -2.7329   -0.8046 C.3       1 <0>         0.0301
     16 C8          2.8985   -1.7805    0.1649 C.3       1 <0>         0.0871
     17 C9         -2.7799    1.9912   -0.3981 C.3       1 <0>        -0.0126
     18 C10        -5.1179    2.3680    0.0071 C.3       1 <0>        -0.0126
     19 C11         3.6982    0.6280    0.1757 C.2       1 <0>         0.3260
     20 C12         4.1892    0.5869    1.4333 C.2       1 <0>         0.3211
     21 C13         3.3588    2.1168   -1.8794 C.3       1 <0>         0.0671
     22 H1         -3.5546    0.7771    1.7307 H         1 <0>         0.0506
     23 H2         -5.0871    0.1546    1.1599 H         1 <0>         0.0506
     24 H3          0.1132   -2.1083    1.0930 H         1 <0>         0.0456
     25 H4         -0.2346   -3.6971    0.3881 H         1 <0>         0.0456
     26 H5         -5.0251   -2.2318   -0.3557 H         1 <0>         0.0652
     27 H6          2.8002   -2.8151   -1.7240 H         1 <0>         0.0413
     28 H7          2.1396   -3.7379   -0.3759 H         1 <0>         0.0413
     29 H8         -2.9180   -3.9320   -0.7041 H         1 <0>         0.0652
     30 H9          2.3315   -1.6959    1.0981 H         1 <0>         0.0732
     31 H10         3.8756   -2.2073    0.4222 H         1 <0>         0.0732
     32 H11        -2.8009    2.7330   -1.2050 H         1 <0>         0.0391
     33 H12        -2.4534    2.4993    0.5169 H         1 <0>         0.0391
     34 H13        -2.0141    1.2623   -0.6824 H         1 <0>         0.0391
     35 H14        -4.9436    2.9083    0.9449 H         1 <0>         0.0391
     36 H15        -5.1570    3.0996   -0.8079 H         1 <0>         0.0391
     37 H16        -6.1098    1.9046    0.0539 H         1 <0>         0.0391
     38 H17         2.7550   -0.3270   -1.3711 H         1 <0>         0.2913
     39 H18         4.2584    2.6023   -0.0645 H         1 <0>         0.2910
     40 H19         4.2326   -0.2680    2.0930 H         1 <0>         0.1524
     41 H20         3.8571    1.4649   -2.6033 H         1 <0>         0.0687
     42 H21         3.5962    3.1536   -2.1361 H         1 <0>         0.0687
     43 H22         2.2757    1.9853   -1.9638 H         1 <0>         0.0687
@<TRIPOS>BOND
     1    1   12 1
     2    1   15 1
     3    2   10 1
     4    2   11 1
     5    3    8 1
     6    4    8 2
     7    5    9 1
     8    5   17 1
     9    5   18 1
    10    6   16 1
    11    6   19 1
    12    6   38 1
    13    7   19 1
    14    7   21 1
    15    7   39 1
    16    8   20 1
    17    9   10 1
    18    9   22 1
    19    9   23 1
    20   10   13 2
    21   11   12 1
    22   11   14 2
    23   12   24 1
    24   12   25 1
    25   13   14 1
    26   13   26 1
    27   14   29 1
    28   15   16 1
    29   15   27 1
    30   15   28 1
    31   16   30 1
    32   16   31 1
    33   17   32 1
    34   17   33 1
    35   17   34 1
    36   18   35 1
    37   18   36 1
    38   18   37 1
    39   19   20 2
    40   20   40 1
    41   21   41 1
    42   21   42 1
    43   21   43 1
