@<TRIPOS>MOLECULE
DB00498
   27    29     0     0     0
SMALL
USER_CHARGES

@<TRIPOS>ATOM
      1 O1         -0.3033   -1.3621   -2.2058 O.2       1 <0>        -0.2909
      2 O2         -0.1716    2.5634    0.4579 O.2       1 <0>        -0.2909
      3 C1          0.3767    0.6825   -1.0255 C.3       1 <0>         0.1098
      4 C2         -0.5382   -0.4697   -1.4128 C.2       1 <0>         0.1787
      5 C3         -0.4713    1.5091   -0.0703 C.2       1 <0>         0.1787
      6 C4         -1.7878   -0.3327   -0.6614 C.ar      1 <0>         0.0289
      7 C5         -1.7488    0.8188    0.1198 C.ar      1 <0>         0.0289
      8 C6          1.6317    0.2062   -0.3859 C.ar      1 <0>        -0.0294
      9 C7         -2.8910   -1.1638   -0.6747 C.ar      1 <0>        -0.0506
     10 C8         -2.8112    1.1885    0.9214 C.ar      1 <0>        -0.0506
     11 C9          2.8113    0.9430   -0.5202 C.ar      1 <0>        -0.0575
     12 C10         1.6373   -0.9800    0.3523 C.ar      1 <0>        -0.0575
     13 C11        -3.9748   -0.8068    0.1322 C.ar      1 <0>        -0.0611
     14 C12        -3.9353    0.3581    0.9227 C.ar      1 <0>        -0.0611
     15 C13         3.9887    0.4965    0.0799 C.ar      1 <0>        -0.0615
     16 C14         2.8147   -1.4263    0.9524 C.ar      1 <0>        -0.0615
     17 C15         3.9903   -0.6881    0.8162 C.ar      1 <0>        -0.0617
     18 H1          0.5584    1.2736   -1.9308 H         1 <0>         0.0511
     19 H2         -2.9254   -2.0598   -1.2838 H         1 <0>         0.0625
     20 H3         -2.7849    2.0858    1.5289 H         1 <0>         0.0625
     21 H4          2.8229    1.8686   -1.0898 H         1 <0>         0.0621
     22 H5          0.7397   -1.5739    0.4980 H         1 <0>         0.0621
     23 H6         -4.8619   -1.4346    0.1503 H         1 <0>         0.0618
     24 H7         -4.7924    0.6137    1.5403 H         1 <0>         0.0618
     25 H8          4.9039    1.0716   -0.0255 H         1 <0>         0.0618
     26 H9          2.8156   -2.3465    1.5296 H         1 <0>         0.0618
     27 H10         4.9068   -1.0351    1.2846 H         1 <0>         0.0618
@<TRIPOS>BOND
     1    1    4 2
     2    2    5 2
     3    3    4 1
     4    3    5 1
     5    3    8 1
     6    3   18 1
     7    4    6 1
     8    5    7 1
     9    6    7 ar
    10    6    9 ar
    11    7   10 ar
    12    8   11 ar
    13    8   12 ar
    14    9   13 ar
    15    9   19 1
    16   10   14 ar
    17   10   20 1
    18   11   15 ar
    19   11   21 1
    20   12   16 ar
    21   12   22 1
    22   13   14 ar
    23   13   23 1
    24   14   24 1
    25   15   17 ar
    26   15   25 1
    27   16   17 ar
    28   16   26 1
    29   17   27 1
