@<TRIPOS>MOLECULE
DB00972
   51    54     0     0     0
SMALL
USER_CHARGES

@<TRIPOS>ATOM
      1 Cl1         1.9950    5.4887    0.0926 Cl        1 <0>        -0.0835
      2 O1         -1.0091   -3.4138   -0.2380 O.2       1 <0>        -0.2655
      3 N1          3.8047   -1.5260    0.2553 N.3       1 <0>        -0.3053
      4 N2         -0.5729   -1.1367   -0.1355 N.am      1 <0>        -0.2256
      5 N3         -1.0295    0.1467   -0.0360 N.2       1 <0>        -0.1720
      6 C1          0.8677   -1.2623   -0.2278 C.3       1 <0>         0.0576
      7 C2          1.3468   -0.5458   -1.4945 C.3       1 <0>        -0.0292
      8 C3          1.5147   -0.6774    1.0308 C.3       1 <0>        -0.0176
      9 C4          2.8097   -0.7742   -1.8644 C.3       1 <0>        -0.0383
     10 C5          2.8942   -1.2520    1.3711 C.3       1 <0>         0.0005
     11 C6          3.8339   -0.4788   -0.7664 C.3       1 <0>        -0.0013
     12 C7         -1.4062   -2.2539   -0.1491 C.2       1 <0>         0.2753
     13 C8          5.1467   -1.8105    0.7666 C.3       1 <0>        -0.0128
     14 C9         -2.8553   -2.0044   -0.0509 C.ar      1 <0>         0.0498
     15 C10        -2.3018    0.3714    0.0509 C.2       1 <0>         0.0738
     16 C11        -3.3158   -0.6966    0.0492 C.ar      1 <0>         0.0106
     17 C12        -2.7479    1.8107    0.1585 C.3       1 <0>         0.0171
     18 C13        -3.7626   -3.0699   -0.0585 C.ar      1 <0>        -0.0487
     19 C14        -4.6872   -0.4422    0.1421 C.ar      1 <0>        -0.0521
     20 C15        -1.5665    2.7281    0.1421 C.ar      1 <0>        -0.0414
     21 C16        -5.1310   -2.8163    0.0343 C.ar      1 <0>        -0.0610
     22 C17        -5.5920   -1.5050    0.1344 C.ar      1 <0>        -0.0611
     23 C18        -1.0888    3.2215   -1.0694 C.ar      1 <0>        -0.0568
     24 C19        -0.9486    3.0840    1.3384 C.ar      1 <0>        -0.0568
     25 C20         0.0135    4.0761   -1.0849 C.ar      1 <0>        -0.0431
     26 C21         0.1537    3.9386    1.3232 C.ar      1 <0>        -0.0431
     27 C22         0.6348    4.4348    0.1115 C.ar      1 <0>         0.0410
     28 H1          1.1184   -2.3268   -0.3038 H         1 <0>         0.0546
     29 H2          1.1826    0.5364   -1.4033 H         1 <0>         0.0286
     30 H3          0.7329   -0.8667   -2.3470 H         1 <0>         0.0286
     31 H4          0.8697   -0.8586    1.9020 H         1 <0>         0.0298
     32 H5          1.5885    0.4150    0.9430 H         1 <0>         0.0298
     33 H6          2.9346   -1.8084   -2.2120 H         1 <0>         0.0278
     34 H7          3.0406   -0.1395   -2.7297 H         1 <0>         0.0278
     35 H8          3.3625   -0.5648    2.0890 H         1 <0>         0.0427
     36 H9          2.7358   -2.1965    1.9080 H         1 <0>         0.0427
     37 H10         4.8136   -0.4694   -1.2629 H         1 <0>         0.0426
     38 H11         3.7021    0.5247   -0.3436 H         1 <0>         0.0426
     39 H12         5.8045   -2.1472   -0.0427 H         1 <0>         0.0391
     40 H13         5.1183   -2.6240    1.5003 H         1 <0>         0.0391
     41 H14         5.6010   -0.9324    1.2396 H         1 <0>         0.0391
     42 H15        -3.3167    1.9482    1.0859 H         1 <0>         0.0377
     43 H16        -3.4187    2.0482   -0.6757 H         1 <0>         0.0377
     44 H17        -3.4255   -4.0999   -0.1359 H         1 <0>         0.0625
     45 H18        -5.0798    0.5667    0.2214 H         1 <0>         0.0624
     46 H19        -5.8376   -3.6411    0.0284 H         1 <0>         0.0618
     47 H20        -6.6581   -1.3094    0.2065 H         1 <0>         0.0618
     48 H21        -1.5627    2.9470   -2.0080 H         1 <0>         0.0621
     49 H22        -1.3126    2.7016    2.2883 H         1 <0>         0.0621
     50 H23         0.3782    4.4538   -2.0365 H         1 <0>         0.0632
     51 H24         0.6284    4.2084    2.2631 H         1 <0>         0.0632
@<TRIPOS>BOND
     1    1   27 1
     2    2   12 2
     3    3   10 1
     4    3   11 1
     5    3   13 1
     6    4    5 1
     7    4    6 1
     8    4   12 am
     9    5   15 2
    10    6    7 1
    11    6    8 1
    12    6   28 1
    13    7    9 1
    14    7   29 1
    15    7   30 1
    16    8   10 1
    17    8   31 1
    18    8   32 1
    19    9   11 1
    20    9   33 1
    21    9   34 1
    22   10   35 1
    23   10   36 1
    24   11   37 1
    25   11   38 1
    26   12   14 1
    27   13   39 1
    28   13   40 1
    29   13   41 1
    30   14   16 ar
    31   14   18 ar
    32   15   16 1
    33   15   17 1
    34   16   19 ar
    35   17   20 1
    36   17   42 1
    37   17   43 1
    38   18   21 ar
    39   18   44 1
    40   19   22 ar
    41   19   45 1
    42   20   23 ar
    43   20   24 ar
    44   21   22 ar
    45   21   46 1
    46   22   47 1
    47   23   25 ar
    48   23   48 1
    49   24   26 ar
    50   24   49 1
    51   25   27 ar
    52   25   50 1
    53   26   27 ar
    54   26   51 1
