@<TRIPOS>MOLECULE
DB00340
   45    48     0     0     0
SMALL
USER_CHARGES

@<TRIPOS>ATOM
      1 S1          3.1817    1.1199    1.7718 S.3       1 <0>        -0.0889
      2 N1         -3.5898   -0.3376    0.7942 N.3       1 <0>        -0.3051
      3 C1         -1.1935   -0.2425    0.1520 C.3       1 <0>        -0.0274
      4 C2          0.1994   -0.7808    0.4739 C.3       1 <0>        -0.0381
      5 C3         -1.5652   -0.5405   -1.3048 C.3       1 <0>        -0.0479
      6 C4         -2.2420   -0.8339    1.1094 C.3       1 <0>         0.0015
      7 C5          1.2641   -0.1302   -0.4183 C.3       1 <0>         0.0116
      8 C6         -2.9949   -0.0951   -1.5929 C.3       1 <0>        -0.0399
      9 C7         -3.9760   -0.6850   -0.5798 C.3       1 <0>        -0.0014
     10 C8          1.2588    1.3783   -0.2386 C.ar      1 <0>        -0.0262
     11 C9          2.6171   -0.7832   -0.1943 C.ar      1 <0>        -0.0262
     12 C10        -4.5656   -0.8648    1.7483 C.3       1 <0>        -0.0128
     13 C11         2.0591    2.0214    0.7201 C.ar      1 <0>         0.0165
     14 C12         3.5257   -0.3129    0.7682 C.ar      1 <0>         0.0165
     15 C13         0.3910    2.1529   -1.0291 C.ar      1 <0>        -0.0569
     16 C14         2.9533   -1.9235   -0.9455 C.ar      1 <0>        -0.0569
     17 C15         1.9826    3.4134    0.8720 C.ar      1 <0>        -0.0477
     18 C16         4.7435   -0.9809    0.9629 C.ar      1 <0>        -0.0477
     19 C17         0.3259    3.5373   -0.8756 C.ar      1 <0>        -0.0614
     20 C18         4.1691   -2.5778   -0.7500 C.ar      1 <0>        -0.0614
     21 C19         1.1215    4.1671    0.0752 C.ar      1 <0>        -0.0607
     22 C20         5.0634   -2.1068    0.2048 C.ar      1 <0>        -0.0607
     23 H1         -1.2370    0.8373    0.3256 H         1 <0>         0.0313
     24 H2          0.2132   -1.8714    0.3433 H         1 <0>         0.0277
     25 H3          0.4231   -0.5994    1.5338 H         1 <0>         0.0277
     26 H4         -1.5051   -1.6255   -1.4704 H         1 <0>         0.0269
     27 H5         -0.9127   -0.1010   -2.0556 H         1 <0>         0.0269
     28 H6         -2.2144   -1.9314    1.0664 H         1 <0>         0.0429
     29 H7         -1.9793   -0.5444    2.1350 H         1 <0>         0.0429
     30 H8          1.0467   -0.3179   -1.4767 H         1 <0>         0.0398
     31 H9         -3.0497    1.0006   -1.5677 H         1 <0>         0.0278
     32 H10        -3.2816   -0.4066   -2.6039 H         1 <0>         0.0278
     33 H11        -4.9734   -0.2839   -0.7979 H         1 <0>         0.0426
     34 H12        -4.0279   -1.7744   -0.7081 H         1 <0>         0.0426
     35 H13        -5.5620   -0.4567    1.5449 H         1 <0>         0.0391
     36 H14        -4.3067   -0.5637    2.7695 H         1 <0>         0.0391
     37 H15        -4.6275   -1.9587    1.7161 H         1 <0>         0.0391
     38 H16        -0.2093    1.7237   -1.8189 H         1 <0>         0.0621
     39 H17         2.2616   -2.3142   -1.6885 H         1 <0>         0.0621
     40 H18         2.5942    3.9287    1.6096 H         1 <0>         0.0629
     41 H19         5.4588   -0.6322    1.7048 H         1 <0>         0.0629
     42 H20        -0.3376    4.1236   -1.5045 H         1 <0>         0.0618
     43 H21         4.4141   -3.4566   -1.3390 H         1 <0>         0.0618
     44 H22         1.0736    5.2452    0.1966 H         1 <0>         0.0618
     45 H23         6.0098   -2.6159    0.3618 H         1 <0>         0.0618
@<TRIPOS>BOND
     1    1   13 1
     2    1   14 1
     3    2    6 1
     4    2    9 1
     5    2   12 1
     6    3    4 1
     7    3    5 1
     8    3    6 1
     9    3   23 1
    10    4    7 1
    11    4   24 1
    12    4   25 1
    13    5    8 1
    14    5   26 1
    15    5   27 1
    16    6   28 1
    17    6   29 1
    18    7   10 1
    19    7   11 1
    20    7   30 1
    21    8    9 1
    22    8   31 1
    23    8   32 1
    24    9   33 1
    25    9   34 1
    26   10   13 ar
    27   10   15 ar
    28   11   14 ar
    29   11   16 ar
    30   12   35 1
    31   12   36 1
    32   12   37 1
    33   13   17 ar
    34   14   18 ar
    35   15   19 ar
    36   15   38 1
    37   16   20 ar
    38   16   39 1
    39   17   21 ar
    40   17   40 1
    41   18   22 ar
    42   18   41 1
    43   19   21 ar
    44   19   42 1
    45   20   22 ar
    46   20   43 1
    47   21   44 1
    48   22   45 1
