@<TRIPOS>MOLECULE
DB00736
   43    45     0     0     0
SMALL
USER_CHARGES

@<TRIPOS>ATOM
      1 S1          0.1216    0.8754    0.8587 S.o       1 <0>         0.0954
      2 O1         -5.3711   -0.7876    0.9967 O.3       1 <0>        -0.4945
      3 O2          0.0704    2.3834    0.7130 O.2       1 <0>        -0.2488
      4 O3          7.5052   -0.3431   -0.3075 O.3       1 <0>        -0.4950
      5 N1          2.9120    0.9845    0.7486 N.pl3     1 <0>        -0.3309
      6 N2          2.0115   -0.7989   -0.2251 N.2       1 <0>        -0.2200
      7 N3         -2.6686    1.6508   -1.0139 N.ar      1 <0>        -0.2582
      8 C1         -0.8286    0.1746   -0.5214 C.3       1 <0>         0.0734
      9 C2         -2.2891    0.5045   -0.4131 C.ar      1 <0>         0.0603
     10 C3         -3.1416   -0.3437    0.2678 C.ar      1 <0>         0.0136
     11 C4          1.7646    0.3121    0.4321 C.cat     1 <0>         0.1981
     12 C5          3.9698    0.2593    0.2632 C.ar      1 <0>         0.0704
     13 C6         -4.4843    0.0107    0.3375 C.ar      1 <0>         0.1290
     14 C7          3.3818   -0.8488   -0.3400 C.ar      1 <0>         0.0903
     15 C8         -4.9201    1.1842   -0.2678 C.ar      1 <0>         0.0095
     16 C9         -2.6494   -1.5973    0.9090 C.3       1 <0>        -0.0345
     17 C10         5.3484    0.4711    0.2991 C.ar      1 <0>         0.0055
     18 C11        -3.9810    1.9624   -0.9251 C.ar      1 <0>         0.0343
     19 C12         4.2026   -1.8133   -0.9486 C.ar      1 <0>        -0.0308
     20 C13         6.1504   -0.4988   -0.3114 C.ar      1 <0>         0.1222
     21 C14         5.5897   -1.6215   -0.9248 C.ar      1 <0>        -0.0178
     22 C15        -6.3469    1.6078   -0.2213 C.3       1 <0>        -0.0348
     23 C16        -6.0171   -1.8047    0.2343 C.3       1 <0>         0.0788
     24 C17         8.0205    0.8216    0.3330 C.3       1 <0>         0.0788
     25 H1         -0.6548   -0.9038   -0.5799 H         1 <0>         0.0470
     26 H2         -0.4285    0.6048   -1.4475 H         1 <0>         0.0470
     27 H3          2.9723    1.8606    1.2504 H         1 <0>         0.1679
     28 H4         -1.7585   -1.4138    1.5172 H         1 <0>         0.0279
     29 H5         -3.3821   -2.0382    1.5924 H         1 <0>         0.0279
     30 H6         -2.4188   -2.3481    0.1461 H         1 <0>         0.0279
     31 H7          5.7190    1.3613    0.7898 H         1 <0>         0.0675
     32 H8         -4.2579    2.8888   -1.4188 H         1 <0>         0.0833
     33 H9          3.7766   -2.6891   -1.4278 H         1 <0>         0.0641
     34 H10         6.2338   -2.3622   -1.3932 H         1 <0>         0.0655
     35 H11        -6.4516    2.6785   -0.4294 H         1 <0>         0.0279
     36 H12        -6.9310    1.0592   -0.9665 H         1 <0>         0.0279
     37 H13        -6.7784    1.4359    0.7704 H         1 <0>         0.0279
     38 H14        -6.6673   -2.3728    0.9053 H         1 <0>         0.0660
     39 H15        -5.2837   -2.4900   -0.2020 H         1 <0>         0.0660
     40 H16        -6.6324   -1.3660   -0.5568 H         1 <0>         0.0660
     41 H17         7.6911    1.7377   -0.1693 H         1 <0>         0.0660
     42 H18         9.1111    0.7841    0.2425 H         1 <0>         0.0660
     43 H19         7.7903    0.8284    1.4039 H         1 <0>         0.0660
@<TRIPOS>BOND
     1    1    3 2
     2    1    8 1
     3    1   11 1
     4    2   13 1
     5    2   23 1
     6    4   20 1
     7    4   24 1
     8    5   11 1
     9    5   12 2
    10    5   27 1
    11    6   11 1
    12    6   14 2
    13    7    9 ar
    14    7   18 ar
    15    8    9 1
    16    8   25 1
    17    8   26 1
    18    9   10 ar
    19   10   13 ar
    20   10   16 1
    21   12   14 ar
    22   12   17 ar
    23   13   15 ar
    24   14   19 ar
    25   15   18 ar
    26   15   22 1
    27   16   28 1
    28   16   29 1
    29   16   30 1
    30   17   20 ar
    31   17   31 1
    32   18   32 1
    33   19   21 ar
    34   19   33 1
    35   20   21 ar
    36   21   34 1
    37   22   35 1
    38   22   36 1
    39   22   37 1
    40   23   38 1
    41   23   39 1
    42   23   40 1
    43   24   41 1
    44   24   42 1
    45   24   43 1
