@<TRIPOS>MOLECULE
DB00591
   62    66     0     0     0
SMALL
USER_CHARGES

@<TRIPOS>ATOM
      1 F1          1.5826   -0.5308    1.3661 F         1 <0>        -0.2377
      2 F2          3.7916   -2.9206   -1.5015 F         1 <0>        -0.2407
      3 O1         -2.7870   -0.3919    0.9289 O.3       1 <0>        -0.3320
      4 O2         -3.3805   -1.9399   -0.7368 O.3       1 <0>        -0.3426
      5 O3          1.3288    2.6901   -0.2061 O.3       1 <0>        -0.3886
      6 O4         -4.4775    1.2521   -1.3254 O.2       1 <0>        -0.2918
      7 O5         -4.8381    2.9412    0.8236 O.3       1 <0>        -0.3874
      8 O6          6.2269   -1.4811    2.5030 O.2       1 <0>        -0.2879
      9 C1         -1.1118    0.7705   -0.4769 C.3       1 <0>         0.0123
     10 C2         -0.3693   -0.5691   -0.6817 C.3       1 <0>        -0.0240
     11 C3          1.1333   -0.3964   -0.9437 C.3       1 <0>         0.0030
     12 C4         -2.5621    0.2433   -0.3270 C.3       1 <0>         0.1640
     13 C5          1.7846    0.3199    0.2901 C.3       1 <0>         0.1528
     14 C6         -2.6731   -0.8755   -1.3663 C.3       1 <0>         0.0987
     15 C7         -1.2299   -1.3031   -1.7126 C.3       1 <0>        -0.0195
     16 C8         -0.5089    1.4424    0.7708 C.3       1 <0>        -0.0150
     17 C9          1.0245    1.6243    0.6802 C.3       1 <0>         0.0910
     18 C10         3.3523    0.4467    0.1403 C.3       1 <0>         0.0469
     19 C11         1.7928   -1.7607   -1.2028 C.3       1 <0>        -0.0117
     20 C12        -1.0290    1.7148   -1.7074 C.3       1 <0>        -0.0561
     21 C13         3.3043   -1.6543   -1.3492 C.3       1 <0>         0.1237
     22 C14        -3.6141    1.3064   -0.4508 C.2       1 <0>         0.1931
     23 C15        -3.4638   -1.6221    0.6538 C.3       1 <0>         0.1663
     24 C16         3.9026   -0.9568   -0.1527 C.2       1 <0>        -0.0198
     25 C17         3.8023    1.3836   -1.0045 C.3       1 <0>        -0.0492
     26 C18         3.9552    1.0203    1.4147 C.2       1 <0>        -0.0674
     27 C19        -3.5473    2.4359    0.5549 C.3       1 <0>         0.1053
     28 C20        -4.9301   -1.4738    1.0421 C.3       1 <0>        -0.0108
     29 C21        -2.8139   -2.7480    1.4529 C.3       1 <0>        -0.0108
     30 C22         4.8223   -1.5671    0.6114 C.2       1 <0>        -0.0121
     31 C23         4.8693    0.4146    2.1786 C.2       1 <0>        -0.0179
     32 C24         5.3766   -0.9214    1.8190 C.2       1 <0>         0.1788
     33 H1         -0.4472   -1.1558    0.2463 H         1 <0>         0.0312
     34 H2          1.2803    0.2105   -1.8422 H         1 <0>         0.0336
     35 H3         -3.1994   -0.6065   -2.2875 H         1 <0>         0.0631
     36 H4         -0.9707   -0.9727   -2.7248 H         1 <0>         0.0294
     37 H5         -1.0934   -2.3879   -1.6599 H         1 <0>         0.0294
     38 H6         -0.7254    0.8430    1.6636 H         1 <0>         0.0297
     39 H7         -0.9508    2.4301    0.9286 H         1 <0>         0.0297
     40 H8          1.3419    1.9328    1.6840 H         1 <0>         0.0626
     41 H9          1.3857   -2.2150   -2.1143 H         1 <0>         0.0300
     42 H10         1.5554   -2.4613   -0.3909 H         1 <0>         0.0300
     43 H11        -1.5930    1.3327   -2.5649 H         1 <0>         0.0236
     44 H12        -1.4331    2.7054   -1.4763 H         1 <0>         0.0236
     45 H13        -0.0082    1.8697   -2.0613 H         1 <0>         0.0236
     46 H14         3.5615   -1.1130   -2.2655 H         1 <0>         0.0699
     47 H15         3.2444    1.2166   -1.9305 H         1 <0>         0.0242
     48 H16         3.7020    2.4431   -0.7486 H         1 <0>         0.0242
     49 H17         4.8643    1.2331   -1.2409 H         1 <0>         0.0242
     50 H18         3.6368    2.0151    1.7183 H         1 <0>         0.0583
     51 H19         1.9471    3.2856    0.2503 H         1 <0>         0.2099
     52 H20        -2.9401    3.2494    0.1541 H         1 <0>         0.0637
     53 H21        -3.1321    2.0938    1.5053 H         1 <0>         0.0637
     54 H22        -5.0356   -1.1837    2.0927 H         1 <0>         0.0281
     55 H23        -5.4218   -0.7012    0.4423 H         1 <0>         0.0281
     56 H24        -5.4814   -2.4045    0.8695 H         1 <0>         0.0281
     57 H25        -1.7650   -2.8727    1.1635 H         1 <0>         0.0281
     58 H26        -2.8294   -2.5334    2.5265 H         1 <0>         0.0281
     59 H27        -3.3119   -3.7057    1.2685 H         1 <0>         0.0281
     60 H28         5.1863   -2.5636    0.3859 H         1 <0>         0.0656
     61 H29         5.2650    0.8898    3.0687 H         1 <0>         0.0653
     62 H30        -5.3462    2.2326    1.2544 H         1 <0>         0.2100
@<TRIPOS>BOND
     1    1   13 1
     2    2   21 1
     3    3   12 1
     4    3   23 1
     5    4   14 1
     6    4   23 1
     7    5   17 1
     8    5   51 1
     9    6   22 2
    10    7   27 1
    11    7   62 1
    12    8   32 2
    13    9   10 1
    14    9   12 1
    15    9   16 1
    16    9   20 1
    17   10   11 1
    18   10   15 1
    19   10   33 1
    20   11   13 1
    21   11   19 1
    22   11   34 1
    23   12   14 1
    24   12   22 1
    25   13   17 1
    26   13   18 1
    27   14   15 1
    28   14   35 1
    29   15   36 1
    30   15   37 1
    31   16   17 1
    32   16   38 1
    33   16   39 1
    34   17   40 1
    35   18   24 1
    36   18   25 1
    37   18   26 1
    38   19   21 1
    39   19   41 1
    40   19   42 1
    41   20   43 1
    42   20   44 1
    43   20   45 1
    44   21   24 1
    45   21   46 1
    46   22   27 1
    47   23   28 1
    48   23   29 1
    49   24   30 2
    50   25   47 1
    51   25   48 1
    52   25   49 1
    53   26   31 2
    54   26   50 1
    55   27   52 1
    56   27   53 1
    57   28   54 1
    58   28   55 1
    59   28   56 1
    60   29   57 1
    61   29   58 1
    62   29   59 1
    63   30   32 1
    64   30   60 1
    65   31   32 1
    66   31   61 1
