@<TRIPOS>MOLECULE
DB00773
   74    80     0     0     0
SMALL
USER_CHARGES

@<TRIPOS>ATOM
      1 O1         -1.2713   -0.8926    1.1056 O.3       1 <0>        -0.3404
      2 O2          0.7721    2.5615    1.8234 O.3       1 <0>        -0.4640
      3 O3         -2.7850    0.4904   -0.0169 O.3       1 <0>        -0.3405
      4 O4         -6.4373    0.6226   -0.1177 O.3       1 <0>        -0.3431
      5 O5          2.7152    2.0174    2.9315 O.2       1 <0>        -0.2505
      6 O6         -3.4686   -2.5058    1.9984 O.3       1 <0>        -0.3841
      7 O7         -5.5621    2.0951   -1.7828 O.3       1 <0>        -0.3489
      8 O8         -5.9113   -0.9398    2.2695 O.3       1 <0>        -0.3864
      9 O9          0.6659   -5.2067   -1.4380 O.3       1 <0>        -0.4526
     10 O10         2.8495   -5.2870   -0.4243 O.3       1 <0>        -0.4526
     11 O11         6.7197    1.8349    1.0760 O.3       1 <0>        -0.4913
     12 O12         4.4244    0.6088   -2.9448 O.3       1 <0>        -0.4913
     13 O13         6.5655    1.8392   -1.6888 O.3       1 <0>        -0.5009
     14 C1          0.5266    0.6269    0.5728 C.3       1 <0>         0.0375
     15 C2          1.4219    0.3118    1.7586 C.3       1 <0>         0.0758
     16 C3         -0.2544   -0.6095    0.1451 C.3       1 <0>         0.0938
     17 C4          2.5405   -0.6677    1.3730 C.3       1 <0>         0.0233
     18 C5          0.6582   -1.8169    0.0097 C.ar      1 <0>        -0.0109
     19 C6          1.9542   -1.8633    0.6101 C.ar      1 <0>        -0.0298
     20 C7         -0.2275    1.8289    1.0901 C.3       1 <0>         0.0987
     21 C8          1.7584    1.6994    2.2442 C.2       1 <0>         0.3116
     22 C9         -2.5715   -0.8159    0.5223 C.3       1 <0>         0.1886
     23 C10         3.6098   -0.0012    0.5589 C.ar      1 <0>        -0.0320
     24 C11        -3.5955   -1.1362    1.6173 C.3       1 <0>         0.1341
     25 C12        -5.1515    0.4695    0.4854 C.3       1 <0>         0.1183
     26 C13        -5.0325   -0.9001    1.1450 C.3       1 <0>         0.1144
     27 C14        -4.0791    0.6161   -0.5922 C.3       1 <0>         0.1137
     28 C15         0.1761   -2.9339   -0.6981 C.ar      1 <0>        -0.0102
     29 C16         2.7374   -3.0284    0.4909 C.ar      1 <0>        -0.0120
     30 C17        -4.2373    1.9732   -1.2653 C.3       1 <0>         0.0794
     31 C18         0.9806   -4.0500   -0.7935 C.ar      1 <0>         0.1666
     32 C19         2.2245   -4.0963   -0.2147 C.ar      1 <0>         0.1665
     33 C20         3.5221   -0.0049   -0.8288 C.ar      1 <0>        -0.0123
     34 C21         4.6792    0.6143    1.1996 C.ar      1 <0>        -0.0123
     35 C22        -6.5403    1.9029   -0.7543 C.3       1 <0>         0.1570
     36 C23         5.6737    1.2343    0.4430 C.ar      1 <0>         0.1653
     37 C24         4.5165    0.6150   -1.5855 C.ar      1 <0>         0.1653
     38 C25         1.8565   -5.9854   -1.2026 C.3       1 <0>         0.2332
     39 C26         5.5923    1.2345   -0.9496 C.ar      1 <0>         0.2010
     40 C27        -7.9137    1.9907   -1.3978 C.3       1 <0>        -0.0136
     41 C28         6.5678    3.2118    1.4153 C.3       1 <0>         0.0790
     42 C29         3.7298    1.6962   -3.5523 C.3       1 <0>         0.0790
     43 H1          1.1313    0.9756   -0.2736 H         1 <0>         0.0370
     44 H2          0.8260   -0.1463    2.5630 H         1 <0>         0.0427
     45 H3         -0.6762   -0.4041   -0.8492 H         1 <0>         0.0651
     46 H4          2.9849   -1.0552    2.3009 H         1 <0>         0.0405
     47 H5         -1.0426    1.5895    1.7800 H         1 <0>         0.0701
     48 H6         -0.6113    2.4546    0.2792 H         1 <0>         0.0701
     49 H7         -2.6362   -1.5645   -0.2786 H         1 <0>         0.0938
     50 H8         -3.3964   -0.5368    2.5146 H         1 <0>         0.0671
     51 H9         -5.0371    1.2402    1.2612 H         1 <0>         0.0651
     52 H10        -5.3566   -1.6981    0.4659 H         1 <0>         0.0648
     53 H11        -4.2204   -0.1545   -1.3636 H         1 <0>         0.0647
     54 H12        -0.8060   -2.9248   -1.1596 H         1 <0>         0.0659
     55 H13         3.7243   -3.0875    0.9391 H         1 <0>         0.0658
     56 H14        -3.5288    2.0736   -2.0944 H         1 <0>         0.0587
     57 H15        -4.0292    2.7976   -0.5721 H         1 <0>         0.0587
     58 H16         2.6984   -0.4615   -1.3677 H         1 <0>         0.0658
     59 H17         4.7642    0.5981    2.2828 H         1 <0>         0.0658
     60 H18        -6.4457    2.6982   -0.0035 H         1 <0>         0.0907
     61 H19        -2.5452   -2.6472    2.2692 H         1 <0>         0.2101
     62 H20        -6.8090   -0.7561    1.9434 H         1 <0>         0.2100
     63 H21         1.5766   -6.9030   -0.6724 H         1 <0>         0.1166
     64 H22         2.2953   -6.2573   -2.1695 H         1 <0>         0.1166
     65 H23        -8.7048    1.8535   -0.6540 H         1 <0>         0.0278
     66 H24        -8.0351    1.2065   -2.1539 H         1 <0>         0.0278
     67 H25        -8.0510    2.9535   -1.8997 H         1 <0>         0.0278
     68 H26         7.2499    2.1759   -1.0854 H         1 <0>         0.2924
     69 H27         7.4969    3.5551    1.8784 H         1 <0>         0.0660
     70 H28         5.7510    3.3396    2.1327 H         1 <0>         0.0660
     71 H29         6.3787    3.8144    0.5212 H         1 <0>         0.0660
     72 H30         2.6875    1.7193   -3.2184 H         1 <0>         0.0660
     73 H31         3.7469    1.5514   -4.6358 H         1 <0>         0.0660
     74 H32         4.2203    2.6463   -3.3181 H         1 <0>         0.0660
@<TRIPOS>BOND
     1    1   16 1
     2    1   22 1
     3    2   20 1
     4    2   21 1
     5    3   22 1
     6    3   27 1
     7    4   25 1
     8    4   35 1
     9    5   21 2
    10    6   24 1
    11    6   61 1
    12    7   30 1
    13    7   35 1
    14    8   26 1
    15    8   62 1
    16    9   31 1
    17    9   38 1
    18   10   32 1
    19   10   38 1
    20   11   36 1
    21   11   41 1
    22   12   37 1
    23   12   42 1
    24   13   39 1
    25   13   68 1
    26   14   15 1
    27   14   16 1
    28   14   20 1
    29   14   43 1
    30   15   17 1
    31   15   21 1
    32   15   44 1
    33   16   18 1
    34   16   45 1
    35   17   19 1
    36   17   23 1
    37   17   46 1
    38   18   19 ar
    39   18   28 ar
    40   19   29 ar
    41   20   47 1
    42   20   48 1
    43   22   24 1
    44   22   49 1
    45   23   33 ar
    46   23   34 ar
    47   24   26 1
    48   24   50 1
    49   25   26 1
    50   25   27 1
    51   25   51 1
    52   26   52 1
    53   27   30 1
    54   27   53 1
    55   28   31 ar
    56   28   54 1
    57   29   32 ar
    58   29   55 1
    59   30   56 1
    60   30   57 1
    61   31   32 ar
    62   33   37 ar
    63   33   58 1
    64   34   36 ar
    65   34   59 1
    66   35   40 1
    67   35   60 1
    68   36   39 ar
    69   37   39 ar
    70   38   63 1
    71   38   64 1
    72   40   65 1
    73   40   66 1
    74   40   67 1
    75   41   69 1
    76   41   70 1
    77   41   71 1
    78   42   72 1
    79   42   73 1
    80   42   74 1
