@<TRIPOS>MOLECULE
DB00600
   27    28     0     0     0
SMALL
USER_CHARGES

@<TRIPOS>ATOM
      1 O1          0.1811    0.5599    0.0077 O.3       1 <0>        -0.4874
      2 O2          5.6672    0.0292   -0.0317 O.3       1 <0>        -0.5068
      3 C1         -2.0320   -0.3110    0.0304 C.ar      1 <0>        -0.0104
      4 C2         -0.5780   -0.6410    0.0733 C.3       1 <0>         0.1146
      5 C3          1.5449    0.4283   -0.0019 C.ar      1 <0>         0.1212
      6 C4         -2.7297   -0.0789    1.2158 C.ar      1 <0>        -0.0554
      7 C5         -2.6940   -0.2338   -1.1950 C.ar      1 <0>        -0.0554
      8 C6          2.1141   -0.8391    0.0514 C.ar      1 <0>        -0.0165
      9 C7          2.3459    1.5631   -0.0648 C.ar      1 <0>        -0.0165
     10 C8         -4.0893    0.2301    1.1759 C.ar      1 <0>        -0.0614
     11 C9         -4.0536    0.0753   -1.2347 C.ar      1 <0>        -0.0614
     12 C10        -4.7512    0.3072   -0.0493 C.ar      1 <0>        -0.0617
     13 C11         3.5025   -0.9736    0.0421 C.ar      1 <0>        -0.0167
     14 C12         3.7343    1.4285   -0.0742 C.ar      1 <0>        -0.0167
     15 C13         4.3124    0.1600   -0.0208 C.ar      1 <0>         0.1171
     16 H1         -0.3522   -1.2952   -0.7796 H         1 <0>         0.0748
     17 H2         -0.3684   -1.1832    1.0050 H         1 <0>         0.0748
     18 H3         -2.2251   -0.1334    2.1769 H         1 <0>         0.0621
     19 H4         -2.1617   -0.4096   -2.1261 H         1 <0>         0.0621
     20 H5          1.5500   -1.7633    0.1053 H         1 <0>         0.0655
     21 H6          1.8996    2.5525   -0.1065 H         1 <0>         0.0655
     22 H7         -4.6324    0.4113    2.0988 H         1 <0>         0.0618
     23 H8         -4.5691    0.1362   -2.1887 H         1 <0>         0.0618
     24 H9          3.9418   -1.9668    0.0845 H         1 <0>         0.0655
     25 H10         4.3602    2.3153   -0.1236 H         1 <0>         0.0655
     26 H11        -5.8098    0.5481   -0.0804 H         1 <0>         0.0618
     27 H12         5.8928   -0.9161    0.0102 H         1 <0>         0.2921
@<TRIPOS>BOND
     1    1    4 1
     2    1    5 1
     3    2   15 1
     4    2   27 1
     5    3    4 1
     6    3    6 ar
     7    3    7 ar
     8    4   16 1
     9    4   17 1
    10    5    8 ar
    11    5    9 ar
    12    6   10 ar
    13    6   18 1
    14    7   11 ar
    15    7   19 1
    16    8   13 ar
    17    8   20 1
    18    9   14 ar
    19    9   21 1
    20   10   12 ar
    21   10   22 1
    22   11   12 ar
    23   11   23 1
    24   12   26 1
    25   13   15 ar
    26   13   24 1
    27   14   15 ar
    28   14   25 1
