@<TRIPOS>MOLECULE
DB00198
   50    50     0     0     0
SMALL
USER_CHARGES

@<TRIPOS>ATOM
      1 O1          1.2808   -0.6067   -0.5733 O.3       1 <0>        -0.3675
      2 O2         -4.2282   -0.3659    0.1045 O.3       1 <0>        -0.4617
      3 O3         -3.1641   -1.8349    1.5430 O.2       1 <0>        -0.2453
      4 O4          2.5134    1.6756   -2.0808 O.2       1 <0>        -0.2761
      5 N1          1.4812    2.3279   -0.0994 N.am      1 <0>        -0.3084
      6 N2         -1.1411    3.5884   -0.1460 N.3       1 <0>        -0.3254
      7 C1          0.2679    1.5488   -0.2450 C.3       1 <0>         0.0682
      8 C2         -0.9265    2.2558    0.4228 C.3       1 <0>         0.0304
      9 C3          0.4802    0.1397    0.3449 C.3       1 <0>         0.0976
     10 C4         -2.2133    1.4295    0.2562 C.3       1 <0>        -0.0041
     11 C5         -0.7986   -0.6099    0.5984 C.2       1 <0>        -0.0438
     12 C6         -2.0031   -0.0251    0.5457 C.2       1 <0>         0.0367
     13 C7          2.0877   -1.5583    0.1021 C.3       1 <0>         0.0590
     14 C8          3.4111   -0.8878    0.4870 C.3       1 <0>        -0.0294
     15 C9          2.3374   -2.7678   -0.8067 C.3       1 <0>        -0.0294
     16 C10        -3.1777   -0.8615    0.8062 C.2       1 <0>         0.3350
     17 C11         2.4983    2.3201   -1.0354 C.2       1 <0>         0.2103
     18 C12         4.3432   -1.8330    1.2341 C.3       1 <0>        -0.0629
     19 C13         1.0519   -3.4724   -1.2197 C.3       1 <0>        -0.0629
     20 C14         3.6293    3.2359   -0.6507 C.3       1 <0>         0.0122
     21 C15        -5.4590   -1.0808    0.2569 C.3       1 <0>         0.0900
     22 C16        -6.5258   -0.4100   -0.5819 C.3       1 <0>        -0.0306
     23 H1          0.0742    1.4542   -1.3235 H         1 <0>         0.0542
     24 H2         -0.7165    2.3779    1.4944 H         1 <0>         0.0481
     25 H3          0.9943    0.2467    1.3105 H         1 <0>         0.0660
     26 H4         -2.9827    1.8404    0.9228 H         1 <0>         0.0331
     27 H5         -2.5892    1.5262   -0.7716 H         1 <0>         0.0331
     28 H6         -0.7143   -1.6666    0.8381 H         1 <0>         0.0603
     29 H7          1.5928   -1.9277    1.0103 H         1 <0>         0.0596
     30 H8          1.6058    2.8592    0.7578 H         1 <0>         0.1491
     31 H9         -0.3062    4.1563   -0.0078 H         1 <0>         0.1185
     32 H10        -1.8958    4.0568    0.3537 H         1 <0>         0.1185
     33 H11         3.2184   -0.0136    1.1194 H         1 <0>         0.0287
     34 H12         3.9151   -0.4997   -0.4068 H         1 <0>         0.0287
     35 H13         2.8543   -2.4445   -1.7186 H         1 <0>         0.0287
     36 H14         2.9724   -3.5078   -0.3099 H         1 <0>         0.0287
     37 H15         3.8314   -2.3188    2.0707 H         1 <0>         0.0231
     38 H16         5.1905   -1.2704    1.6404 H         1 <0>         0.0231
     39 H17         4.7575   -2.6025    0.5768 H         1 <0>         0.0231
     40 H18         1.2815   -4.3399   -1.8466 H         1 <0>         0.0231
     41 H19         0.3995   -2.8070   -1.7934 H         1 <0>         0.0231
     42 H20         0.5001   -3.8245   -0.3423 H         1 <0>         0.0231
     43 H21         4.0176    2.9557    0.3327 H         1 <0>         0.0322
     44 H22         4.4359    3.1549   -1.3844 H         1 <0>         0.0322
     45 H23         3.2740    4.2697   -0.6227 H         1 <0>         0.0322
     46 H24        -5.7574   -1.0730    1.3112 H         1 <0>         0.0695
     47 H25        -5.3233   -2.1162   -0.0750 H         1 <0>         0.0695
     48 H26        -6.6594    0.6322   -0.2736 H         1 <0>         0.0262
     49 H27        -6.2330   -0.3941   -1.6369 H         1 <0>         0.0262
     50 H28        -7.4824   -0.9316   -0.4886 H         1 <0>         0.0262
@<TRIPOS>BOND
     1    1    9 1
     2    1   13 1
     3    2   16 1
     4    2   21 1
     5    3   16 2
     6    4   17 2
     7    5    7 1
     8    5   17 am
     9    5   30 1
    10    6    8 1
    11    6   31 1
    12    6   32 1
    13    7    8 1
    14    7    9 1
    15    7   23 1
    16    8   10 1
    17    8   24 1
    18    9   11 1
    19    9   25 1
    20   10   12 1
    21   10   26 1
    22   10   27 1
    23   11   12 2
    24   11   28 1
    25   12   16 1
    26   13   14 1
    27   13   15 1
    28   13   29 1
    29   14   18 1
    30   14   33 1
    31   14   34 1
    32   15   19 1
    33   15   35 1
    34   15   36 1
    35   17   20 1
    36   18   37 1
    37   18   38 1
    38   18   39 1
    39   19   40 1
    40   19   41 1
    41   19   42 1
    42   20   43 1
    43   20   44 1
    44   20   45 1
    45   21   22 1
    46   21   46 1
    47   21   47 1
    48   22   48 1
    49   22   49 1
    50   22   50 1
