@<TRIPOS>MOLECULE
DB00532
   30    31     0     0     0
SMALL
USER_CHARGES

@<TRIPOS>ATOM
      1 O1          1.2144    0.3806    2.1664 O.2       1 <0>        -0.2724
      2 O2          3.0149    0.6563   -2.0625 O.2       1 <0>        -0.2522
      3 N1          1.0280   -0.2505   -1.2461 N.am      1 <0>        -0.2811
      4 N2          2.4458    0.6710    0.2061 N.am      1 <0>        -0.2271
      5 C1          0.3590   -0.4435    0.0304 C.3       1 <0>         0.1376
      6 C2          0.3670   -1.9377    0.3776 C.3       1 <0>        -0.0216
      7 C3          1.3691    0.2495    0.9581 C.2       1 <0>         0.2508
      8 C4         -0.9957    0.2506    0.0522 C.ar      1 <0>        -0.0153
      9 C5          2.2627    0.3916   -1.1335 C.2       1 <0>         0.3094
     10 C6         -0.4636   -2.7445   -0.6052 C.3       1 <0>        -0.0626
     11 C7         -1.2677    1.2803   -0.8495 C.ar      1 <0>        -0.0561
     12 C8         -1.9668   -0.1418    0.9743 C.ar      1 <0>        -0.0561
     13 C9          3.6020    1.3577    0.7462 C.3       1 <0>         0.0124
     14 C10        -2.5089    1.9164   -0.8291 C.ar      1 <0>        -0.0614
     15 C11        -3.2082    0.4943    0.9945 C.ar      1 <0>        -0.0614
     16 C12        -3.4793    1.5232    0.0927 C.ar      1 <0>        -0.0617
     17 H1          0.0091   -2.1190    1.3976 H         1 <0>         0.0291
     18 H2          1.3945   -2.3269    0.3568 H         1 <0>         0.0291
     19 H3          0.6454   -0.5513   -2.1375 H         1 <0>         0.1516
     20 H4         -1.5143   -2.4426   -0.6152 H         1 <0>         0.0231
     21 H5         -0.0748   -2.6721   -1.6254 H         1 <0>         0.0231
     22 H6         -0.4348   -3.8032   -0.3252 H         1 <0>         0.0231
     23 H7         -0.5361    1.6274   -1.5728 H         1 <0>         0.0621
     24 H8         -1.7840   -0.9259    1.7017 H         1 <0>         0.0621
     25 H9          3.8241    0.9788    1.7473 H         1 <0>         0.0434
     26 H10         3.3609    2.4223    0.8177 H         1 <0>         0.0434
     27 H11         4.4638    1.2276    0.0866 H         1 <0>         0.0434
     28 H12        -2.7192    2.7203   -1.5285 H         1 <0>         0.0618
     29 H13        -3.9623    0.1915    1.7150 H         1 <0>         0.0618
     30 H14        -4.4451    2.0197    0.1095 H         1 <0>         0.0618
@<TRIPOS>BOND
     1    1    7 2
     2    2    9 2
     3    3    5 1
     4    3    9 am
     5    3   19 1
     6    4    7 am
     7    4    9 am
     8    4   13 1
     9    5    6 1
    10    5    7 1
    11    5    8 1
    12    6   10 1
    13    6   17 1
    14    6   18 1
    15    8   11 ar
    16    8   12 ar
    17   10   20 1
    18   10   21 1
    19   10   22 1
    20   11   14 ar
    21   11   23 1
    22   12   15 ar
    23   12   24 1
    24   13   25 1
    25   13   26 1
    26   13   27 1
    27   14   16 ar
    28   14   28 1
    29   15   16 ar
    30   15   29 1
    31   16   30 1
