@<TRIPOS>MOLECULE
DB00641
   68    70     0     0     0
SMALL
USER_CHARGES

@<TRIPOS>ATOM
      1 O1         -1.8463   -0.3904   -0.2640 O.3       1 <0>        -0.4603
      2 O2          3.9641    0.4635   -1.1218 O.3       1 <0>        -0.4612
      3 O3          5.2501   -2.6062   -0.4342 O.3       1 <0>        -0.3911
      4 O4         -2.5799   -1.7886   -1.9365 O.2       1 <0>        -0.2502
      5 O5          5.4230    0.6864   -2.8204 O.2       1 <0>        -0.2507
      6 C1         -1.0702    1.9081   -0.5317 C.3       1 <0>         0.0243
      7 C2          0.1454    1.6121    0.3964 C.3       1 <0>        -0.0247
      8 C3         -1.6384    0.6448   -1.2195 C.3       1 <0>         0.1106
      9 C4          0.6899    2.9178    1.0462 C.3       1 <0>        -0.0219
     10 C5         -2.1515    2.6762    0.2227 C.2       1 <0>        -0.0444
     11 C6          1.2559    0.8256   -0.3092 C.3       1 <0>        -0.0457
     12 C7         -2.9422    0.9549   -1.9603 C.3       1 <0>        -0.0090
     13 C8         -4.0266    1.5696   -1.0584 C.3       1 <0>        -0.0218
     14 C9         -3.4632    2.5100   -0.0260 C.2       1 <0>        -0.0775
     15 C10         2.3701    0.4611    0.6626 C.3       1 <0>        -0.0153
     16 C11        -0.4329    3.7513    1.6074 C.2       1 <0>        -0.0806
     17 C12        -1.7132    3.6184    1.2368 C.2       1 <0>        -0.0621
     18 C13         1.5386    3.7872    0.1129 C.3       1 <0>        -0.0587
     19 C14         3.4621   -0.3417   -0.0329 C.3       1 <0>         0.1054
     20 C15        -4.8852    0.5009   -0.3767 C.3       1 <0>        -0.0588
     21 C16         4.5583   -0.7405    0.9440 C.3       1 <0>         0.0109
     22 C17        -2.3264   -1.5747   -0.7569 C.2       1 <0>         0.3130
     23 C18         5.6930   -1.4009    0.1834 C.3       1 <0>         0.0686
     24 C19        -2.5122   -2.6001    0.3692 C.3       1 <0>         0.0619
     25 C20         6.2199   -0.4638   -0.8859 C.3       1 <0>         0.0710
     26 C21         5.1636    0.2370   -1.7056 C.2       1 <0>         0.3098
     27 C22        -1.1670   -2.8896    1.0797 C.3       1 <0>        -0.0406
     28 C23        -3.1143   -3.8935   -0.2084 C.3       1 <0>        -0.0497
     29 C24        -3.5108   -2.0210    1.3880 C.3       1 <0>        -0.0497
     30 C25        -0.0584   -3.4091    0.1706 C.3       1 <0>        -0.0643
     31 H1         -0.7269    2.5755   -1.3361 H         1 <0>         0.0388
     32 H2         -0.2232    0.9813    1.2210 H         1 <0>         0.0313
     33 H3         -0.9068    0.2897   -1.9566 H         1 <0>         0.0740
     34 H4          1.3103    2.6400    1.9076 H         1 <0>         0.0343
     35 H5          1.6341    1.3880   -1.1697 H         1 <0>         0.0269
     36 H6          0.8543   -0.1114   -0.7098 H         1 <0>         0.0269
     37 H7         -2.6931    1.7093   -2.7225 H         1 <0>         0.0307
     38 H8         -3.3672    0.1342   -2.5394 H         1 <0>         0.0307
     39 H9         -4.6912    2.1487   -1.7135 H         1 <0>         0.0342
     40 H10        -4.1968    3.0828    0.5389 H         1 <0>         0.0578
     41 H11         2.8312    1.3628    1.0772 H         1 <0>         0.0301
     42 H12         1.9611   -0.1165    1.5004 H         1 <0>         0.0301
     43 H13        -0.1790    4.4924    2.3610 H         1 <0>         0.0575
     44 H14        -2.4620    4.2455    1.7132 H         1 <0>         0.0617
     45 H15         2.4606    3.2852   -0.1929 H         1 <0>         0.0235
     46 H16         1.8393    4.7152    0.6141 H         1 <0>         0.0235
     47 H17         0.9904    4.0684   -0.7923 H         1 <0>         0.0235
     48 H18         3.0128   -1.2376   -0.4800 H         1 <0>         0.0734
     49 H19        -5.0253   -0.3861   -1.0005 H         1 <0>         0.0235
     50 H20        -4.4688    0.2248    0.5897 H         1 <0>         0.0235
     51 H21        -5.8821    0.9087   -0.1683 H         1 <0>         0.0235
     52 H22         4.1495   -1.4255    1.6957 H         1 <0>         0.0326
     53 H23         4.9451    0.1438    1.4657 H         1 <0>         0.0326
     54 H24         6.5047   -1.6683    0.8687 H         1 <0>         0.0600
     55 H25         6.8238    0.3235   -0.4198 H         1 <0>         0.0403
     56 H26         6.8551   -1.0249   -1.5816 H         1 <0>         0.0403
     57 H27        -0.8014   -1.9740    1.5631 H         1 <0>         0.0273
     58 H28        -1.3254   -3.6183    1.8850 H         1 <0>         0.0273
     59 H29        -4.1032   -3.7087   -0.6447 H         1 <0>         0.0240
     60 H30        -3.2298   -4.6577    0.5681 H         1 <0>         0.0240
     61 H31        -2.4918   -4.3131   -1.0058 H         1 <0>         0.0240
     62 H32        -4.5024   -1.8917    0.9451 H         1 <0>         0.0240
     63 H33        -3.1715   -1.0666    1.8033 H         1 <0>         0.0240
     64 H34        -3.6345   -2.7085    2.2339 H         1 <0>         0.0240
     65 H35         4.9082   -3.1859    0.2679 H         1 <0>         0.2098
     66 H36        -0.3144   -4.3802   -0.2621 H         1 <0>         0.0230
     67 H37         0.1574   -2.7106   -0.6433 H         1 <0>         0.0230
     68 H38         0.8633   -3.5391    0.7475 H         1 <0>         0.0230
@<TRIPOS>BOND
     1    1    8 1
     2    1   22 1
     3    2   19 1
     4    2   26 1
     5    3   23 1
     6    3   65 1
     7    4   22 2
     8    5   26 2
     9    6    7 1
    10    6    8 1
    11    6   10 1
    12    6   31 1
    13    7    9 1
    14    7   11 1
    15    7   32 1
    16    8   12 1
    17    8   33 1
    18    9   16 1
    19    9   18 1
    20    9   34 1
    21   10   14 2
    22   10   17 1
    23   11   15 1
    24   11   35 1
    25   11   36 1
    26   12   13 1
    27   12   37 1
    28   12   38 1
    29   13   14 1
    30   13   20 1
    31   13   39 1
    32   14   40 1
    33   15   19 1
    34   15   41 1
    35   15   42 1
    36   16   17 2
    37   16   43 1
    38   17   44 1
    39   18   45 1
    40   18   46 1
    41   18   47 1
    42   19   21 1
    43   19   48 1
    44   20   49 1
    45   20   50 1
    46   20   51 1
    47   21   23 1
    48   21   52 1
    49   21   53 1
    50   22   24 1
    51   23   25 1
    52   23   54 1
    53   24   27 1
    54   24   28 1
    55   24   29 1
    56   25   26 1
    57   25   55 1
    58   25   56 1
    59   27   30 1
    60   27   57 1
    61   27   58 1
    62   28   59 1
    63   28   60 1
    64   28   61 1
    65   29   62 1
    66   29   63 1
    67   29   64 1
    68   30   66 1
    69   30   67 1
    70   30   68 1
