@<TRIPOS>MOLECULE
DB00617
   22    22     0     0     0
SMALL
USER_CHARGES

@<TRIPOS>ATOM
      1 O1         -0.2395    0.3085   -1.4417 O.3       1 <0>        -0.4342
      2 O2          0.4591    0.5518    1.9721 O.2       1 <0>        -0.2707
      3 O3          1.7987   -0.1329   -2.3595 O.2       1 <0>        -0.2258
      4 N1          1.5065    0.1453   -0.0723 N.am      1 <0>        -0.2073
      5 C1         -0.7683    0.5298   -0.1229 C.3       1 <0>         0.1876
      6 C2         -1.7777   -0.5618    0.1990 C.3       1 <0>        -0.0071
      7 C3          0.4532    0.4199    0.7569 C.2       1 <0>         0.2678
      8 C4         -1.3720    1.9240   -0.0553 C.3       1 <0>        -0.0160
      9 C5          1.1082    0.0854   -1.3733 C.2       1 <0>         0.4101
     10 C6         -1.1791   -1.9464    0.0232 C.3       1 <0>        -0.0612
     11 C7          2.8696   -0.0476    0.3826 C.3       1 <0>         0.0142
     12 H1         -2.6404   -0.4793   -0.4734 H         1 <0>         0.0306
     13 H2         -2.1491   -0.4549    1.2249 H         1 <0>         0.0306
     14 H3         -2.1769    2.0368   -0.7896 H         1 <0>         0.0273
     15 H4         -1.7719    2.1418    0.9404 H         1 <0>         0.0273
     16 H5         -0.6220    2.6880   -0.2917 H         1 <0>         0.0273
     17 H6         -0.8502   -2.1264   -1.0049 H         1 <0>         0.0231
     18 H7         -0.3358   -2.1225    0.6978 H         1 <0>         0.0231
     19 H8         -1.9370   -2.7032    0.2539 H         1 <0>         0.0231
     20 H9          2.8695   -0.7437    1.2263 H         1 <0>         0.0434
     21 H10         3.2543    0.9154    0.7312 H         1 <0>         0.0434
     22 H11         3.5008   -0.4280   -0.4240 H         1 <0>         0.0434
@<TRIPOS>BOND
     1    1    5 1
     2    1    9 1
     3    2    7 2
     4    3    9 2
     5    4    7 am
     6    4    9 am
     7    4   11 1
     8    5    6 1
     9    5    7 1
    10    5    8 1
    11    6   10 1
    12    6   12 1
    13    6   13 1
    14    8   14 1
    15    8   15 1
    16    8   16 1
    17   10   17 1
    18   10   18 1
    19   10   19 1
    20   11   20 1
    21   11   21 1
    22   11   22 1
