@<TRIPOS>MOLECULE
DB00223
   57    60     0     0     0
SMALL
USER_CHARGES

@<TRIPOS>ATOM
      1 F1          1.6039    0.4082    1.5431 F         1 <0>        -0.2377
      2 F2          3.6514   -3.1894    0.2404 F         1 <0>        -0.2407
      3 O1         -2.7682    0.3709    1.9714 O.3       1 <0>        -0.3802
      4 O2          0.6659    2.0463   -1.5257 O.3       1 <0>        -0.3886
      5 O3         -4.7558    0.2293   -0.7717 O.2       1 <0>        -0.2919
      6 O4         -5.4334    2.6520    0.1721 O.3       1 <0>        -0.3874
      7 O5          6.4533    0.3982    2.0629 O.2       1 <0>        -0.2879
      8 C1         -1.4896    0.3002   -0.1196 C.3       1 <0>         0.0096
      9 C2         -0.6140   -0.8838    0.3466 C.3       1 <0>        -0.0262
     10 C3          0.7970   -0.8747   -0.2607 C.3       1 <0>         0.0029
     11 C4          1.5279    0.4466    0.1593 C.3       1 <0>         0.1528
     12 C5         -2.8277   -0.0503    0.6023 C.3       1 <0>         0.1340
     13 C6         -1.5126   -2.0921    0.1023 C.3       1 <0>        -0.0436
     14 C7         -0.7908    1.5970    0.3424 C.3       1 <0>        -0.0151
     15 C8         -2.9064   -1.6102    0.5801 C.3       1 <0>        -0.0071
     16 C9          0.6714    1.7120   -0.1473 C.3       1 <0>         0.0910
     17 C10         3.0248    0.4829   -0.3459 C.3       1 <0>         0.0469
     18 C11         1.5856   -2.1127    0.1980 C.3       1 <0>        -0.0117
     19 C12        -1.7153    0.3277   -1.6567 C.3       1 <0>        -0.0562
     20 C13         3.0301   -2.0914   -0.2815 C.3       1 <0>         0.1237
     21 C14         3.7050   -0.8077    0.1333 C.2       1 <0>        -0.0198
     22 C15        -4.0255    0.7007    0.0988 C.2       1 <0>         0.1904
     23 C16        -4.0127   -2.2292   -0.2686 C.3       1 <0>        -0.0594
     24 C17         3.1734    0.5470   -1.8839 C.3       1 <0>        -0.0492
     25 C18         3.7323    1.7145    0.2010 C.2       1 <0>        -0.0674
     26 C19         4.8024   -0.8248    0.9063 C.2       1 <0>        -0.0121
     27 C20        -4.2758    2.0582    0.7205 C.3       1 <0>         0.1052
     28 C21         4.8235    1.7011    0.9726 C.2       1 <0>        -0.0179
     29 C22         5.4429    0.4237    1.3682 C.2       1 <0>         0.1788
     30 H1         -0.4751   -0.8199    1.4371 H         1 <0>         0.0311
     31 H2          0.7244   -0.9224   -1.3519 H         1 <0>         0.0336
     32 H3         -1.5152   -2.3795   -0.9551 H         1 <0>         0.0272
     33 H4         -1.1883   -2.9652    0.6786 H         1 <0>         0.0272
     34 H5         -0.7739    1.6488    1.4377 H         1 <0>         0.0297
     35 H6         -1.3533    2.4676   -0.0104 H         1 <0>         0.0297
     36 H7         -3.0501   -1.9803    1.6046 H         1 <0>         0.0330
     37 H8          1.1065    2.5662    0.3843 H         1 <0>         0.0626
     38 H9          1.1103   -3.0283   -0.1742 H         1 <0>         0.0300
     39 H10         1.5683   -2.1935    1.2932 H         1 <0>         0.0300
     40 H11        -2.2344    1.2469   -1.9520 H         1 <0>         0.0236
     41 H12        -0.7886    0.2859   -2.2314 H         1 <0>         0.0236
     42 H13        -2.3241   -0.5086   -2.0094 H         1 <0>         0.0236
     43 H14         3.0726   -2.2033   -1.3696 H         1 <0>         0.0699
     44 H15        -3.9347   -3.3226   -0.2258 H         1 <0>         0.0233
     45 H16        -5.0052   -1.9801    0.1195 H         1 <0>         0.0233
     46 H17        -3.9439   -1.9584   -1.3257 H         1 <0>         0.0233
     47 H18         2.9269    1.5367   -2.2833 H         1 <0>         0.0242
     48 H19         4.2081    0.3438   -2.1905 H         1 <0>         0.0242
     49 H20         2.5377   -0.1780   -2.4007 H         1 <0>         0.0242
     50 H21        -2.2130   -0.2456    2.4761 H         1 <0>         0.2108
     51 H22         3.3356    2.6879   -0.0795 H         1 <0>         0.0583
     52 H23         0.1759    2.8796   -1.6294 H         1 <0>         0.2099
     53 H24         5.2568   -1.7523    1.2378 H         1 <0>         0.0656
     54 H25        -3.4379    2.7254    0.5209 H         1 <0>         0.0637
     55 H26        -4.4381    1.9776    1.7980 H         1 <0>         0.0637
     56 H27         5.2835    2.6206    1.3153 H         1 <0>         0.0653
     57 H28        -6.1938    2.1011    0.4254 H         1 <0>         0.2100
@<TRIPOS>BOND
     1    1   11 1
     2    2   20 1
     3    3   12 1
     4    3   50 1
     5    4   16 1
     6    4   52 1
     7    5   22 2
     8    6   27 1
     9    6   57 1
    10    7   29 2
    11    8    9 1
    12    8   12 1
    13    8   14 1
    14    8   19 1
    15    9   10 1
    16    9   13 1
    17    9   30 1
    18   10   11 1
    19   10   18 1
    20   10   31 1
    21   11   16 1
    22   11   17 1
    23   12   15 1
    24   12   22 1
    25   13   15 1
    26   13   32 1
    27   13   33 1
    28   14   16 1
    29   14   34 1
    30   14   35 1
    31   15   23 1
    32   15   36 1
    33   16   37 1
    34   17   21 1
    35   17   24 1
    36   17   25 1
    37   18   20 1
    38   18   38 1
    39   18   39 1
    40   19   40 1
    41   19   41 1
    42   19   42 1
    43   20   21 1
    44   20   43 1
    45   21   26 2
    46   22   27 1
    47   23   44 1
    48   23   45 1
    49   23   46 1
    50   24   47 1
    51   24   48 1
    52   24   49 1
    53   25   28 2
    54   25   51 1
    55   26   29 1
    56   26   53 1
    57   27   54 1
    58   27   55 1
    59   28   29 1
    60   28   56 1
