@<TRIPOS>MOLECULE
DB00539
   57    59     0     0     0
SMALL
USER_CHARGES

@<TRIPOS>ATOM
      1 Cl1        -6.5621   -2.3296    0.1939 Cl        1 <0>        -0.1251
      2 O1          2.9928    1.7657    0.9456 O.3       1 <0>        -0.4907
      3 N1          6.3097    0.8138   -0.3493 N.3       1 <0>        -0.3051
      4 C1         -2.3317    0.3387   -0.0698 C.2       1 <0>        -0.0070
      5 C2         -2.7106   -0.9727   -0.2540 C.2       1 <0>        -0.0309
      6 C3         -0.9503    0.7092    0.1943 C.ar      1 <0>        -0.0168
      7 C4         -4.1087   -1.4695   -0.5964 C.3       1 <0>        -0.0131
      8 C5         -3.4004    1.3861   -0.1540 C.ar      1 <0>        -0.0170
      9 C6         -1.7046   -2.0616   -0.1784 C.ar      1 <0>        -0.0212
     10 C7         -0.0902    0.9933   -0.8666 C.ar      1 <0>        -0.0506
     11 C8         -0.4853    0.7802    1.5074 C.ar      1 <0>        -0.0506
     12 C9         -4.9351   -1.7705    0.6512 C.3       1 <0>         0.0266
     13 C10         1.6908    1.4171    0.6971 C.ar      1 <0>         0.1206
     14 C11         1.2349    1.3484   -0.6143 C.ar      1 <0>        -0.0194
     15 C12         0.8397    1.1355    1.7597 C.ar      1 <0>        -0.0194
     16 C13        -3.6679    1.9494   -1.3776 C.ar      1 <0>        -0.0540
     17 C14        -4.0646    1.7359    0.9961 C.ar      1 <0>        -0.0540
     18 C15        -1.4574   -2.6585    1.0413 C.ar      1 <0>        -0.0543
     19 C16        -1.0470   -2.4441   -1.3300 C.ar      1 <0>        -0.0543
     20 C17         5.2943    1.1951    0.6316 C.3       1 <0>         0.0325
     21 C18         3.9504    1.4147   -0.0446 C.3       1 <0>         0.1022
     22 C19        -4.6623    2.9244   -1.4561 C.ar      1 <0>        -0.0612
     23 C20        -5.0590    2.7108    0.9175 C.ar      1 <0>        -0.0612
     24 C21        -0.5118   -3.6815    1.1125 C.ar      1 <0>        -0.0612
     25 C22        -0.1014   -3.4673   -1.2587 C.ar      1 <0>        -0.0612
     26 C23        -5.3578    3.3050   -0.3087 C.ar      1 <0>        -0.0617
     27 C24         0.1660   -4.0859   -0.0375 C.ar      1 <0>        -0.0617
     28 C25         7.6040    0.6205    0.3034 C.3       1 <0>        -0.0129
     29 C26         5.9069   -0.4018   -1.0557 C.3       1 <0>        -0.0129
     30 H1         -4.6331   -0.7360   -1.2199 H         1 <0>         0.0325
     31 H2         -4.0422   -2.3698   -1.2226 H         1 <0>         0.0325
     32 H3         -0.4382    0.9485   -1.8960 H         1 <0>         0.0625
     33 H4         -1.1418    0.5615    2.3462 H         1 <0>         0.0625
     34 H5         -4.4801   -2.5642    1.2507 H         1 <0>         0.0433
     35 H6         -5.0612   -0.8918    1.2871 H         1 <0>         0.0433
     36 H7          1.8620    1.5902   -1.4669 H         1 <0>         0.0654
     37 H8          1.1983    1.1891    2.7835 H         1 <0>         0.0654
     38 H9         -3.1328    1.6583   -2.2765 H         1 <0>         0.0624
     39 H10        -3.8373    1.2810    1.9555 H         1 <0>         0.0624
     40 H11        -1.9769   -2.3506    1.9443 H         1 <0>         0.0624
     41 H12        -1.2483   -1.9699   -2.2866 H         1 <0>         0.0624
     42 H13         5.5858    2.1255    1.1359 H         1 <0>         0.0460
     43 H14         5.1903    0.4408    1.4236 H         1 <0>         0.0460
     44 H15         4.0195    2.2230   -0.7825 H         1 <0>         0.0709
     45 H16         3.6307    0.4906   -0.5362 H         1 <0>         0.0709
     46 H17        -4.8954    3.3867   -2.4108 H         1 <0>         0.0618
     47 H18        -5.6005    3.0074    1.8110 H         1 <0>         0.0618
     48 H19        -0.3028   -4.1625    2.0636 H         1 <0>         0.0618
     49 H20         0.4265   -3.7821   -2.1542 H         1 <0>         0.0618
     50 H21        -6.1323    4.0640   -0.3698 H         1 <0>         0.0618
     51 H22         0.9024   -4.8821    0.0180 H         1 <0>         0.0618
     52 H23         8.3797    0.3938   -0.4366 H         1 <0>         0.0391
     53 H24         7.5798   -0.1922    1.0385 H         1 <0>         0.0391
     54 H25         7.9189    1.5378    0.8135 H         1 <0>         0.0391
     55 H26         5.1142   -0.2077   -1.7849 H         1 <0>         0.0391
     56 H27         5.5919   -1.2011   -0.3749 H         1 <0>         0.0391
     57 H28         6.7418   -0.7894   -1.6528 H         1 <0>         0.0391
@<TRIPOS>BOND
     1    1   12 1
     2    2   13 1
     3    2   21 1
     4    3   20 1
     5    3   28 1
     6    3   29 1
     7    4    5 2
     8    4    6 1
     9    4    8 1
    10    5    7 1
    11    5    9 1
    12    6   10 ar
    13    6   11 ar
    14    7   12 1
    15    7   30 1
    16    7   31 1
    17    8   16 ar
    18    8   17 ar
    19    9   18 ar
    20    9   19 ar
    21   10   14 ar
    22   10   32 1
    23   11   15 ar
    24   11   33 1
    25   12   34 1
    26   12   35 1
    27   13   14 ar
    28   13   15 ar
    29   14   36 1
    30   15   37 1
    31   16   22 ar
    32   16   38 1
    33   17   23 ar
    34   17   39 1
    35   18   24 ar
    36   18   40 1
    37   19   25 ar
    38   19   41 1
    39   20   21 1
    40   20   42 1
    41   20   43 1
    42   21   44 1
    43   21   45 1
    44   22   26 ar
    45   22   46 1
    46   23   26 ar
    47   23   47 1
    48   24   27 ar
    49   24   48 1
    50   25   27 ar
    51   25   49 1
    52   26   50 1
    53   27   51 1
    54   28   52 1
    55   28   53 1
    56   28   54 1
    57   29   55 1
    58   29   56 1
    59   29   57 1
