@<TRIPOS>MOLECULE
DB00411
   25    24     0     0     0
SMALL
USER_CHARGES

@<TRIPOS>ATOM
      1 O1         -2.2213   -0.4822   -0.0147 O.3       1 <0>        -0.4452
      2 O2         -3.3308    1.5348    0.0111 O.2       1 <0>        -0.2267
      3 N1          1.4884   -0.0779    0.0006 N.4       1 <0>         0.2393
      4 N2         -4.4779   -0.4580    0.0022 N.am      1 <0>        -0.2950
      5 C1          0.1561   -0.8126   -0.0351 C.3       1 <0>         0.0043
      6 C2          1.5597    0.7831    1.2536 C.3       1 <0>        -0.0417
      7 C3          2.6252   -1.0897    0.0149 C.3       1 <0>        -0.0417
      8 C4          1.6129    0.8075   -1.2310 C.3       1 <0>        -0.0417
      9 C5         -0.9734    0.1984   -0.0179 C.3       1 <0>         0.1336
     10 C6         -3.3388    0.3083    0.0006 C.2       1 <0>         0.3978
     11 H1          0.1251   -1.4336   -0.9384 H         1 <0>         0.0849
     12 H2          0.1060   -1.4796    0.8341 H         1 <0>         0.0849
     13 H3          1.2730    0.1751    2.1167 H         1 <0>         0.0778
     14 H4          2.5937    1.1252    1.3683 H         1 <0>         0.0778
     15 H5          0.9174    1.6608    1.1486 H         1 <0>         0.0778
     16 H6          2.5542   -1.7007   -0.8899 H         1 <0>         0.0778
     17 H7          3.5761   -0.5491    0.0359 H         1 <0>         0.0778
     18 H8          2.5213   -1.7127    0.9082 H         1 <0>         0.0778
     19 H9          1.3902    0.2086   -2.1190 H         1 <0>         0.0778
     20 H10         0.9414    1.6656   -1.1504 H         1 <0>         0.0778
     21 H11         2.6432    1.1753   -1.2788 H         1 <0>         0.0778
     22 H12        -0.9522    0.8218    0.8797 H         1 <0>         0.0752
     23 H13        -0.9571    0.8377   -0.9051 H         1 <0>         0.0752
     24 H14        -4.4328   -1.4715   -0.0069 H         1 <0>         0.1482
     25 H15        -5.3996   -0.0345    0.0127 H         1 <0>         0.1482
@<TRIPOS>BOND
     1    1    9 1
     2    1   10 1
     3    2   10 2
     4    3    5 1
     5    3    6 1
     6    3    7 1
     7    3    8 1
     8    4   10 am
     9    4   24 1
    10    4   25 1
    11    5    9 1
    12    5   11 1
    13    5   12 1
    14    6   13 1
    15    6   14 1
    16    6   15 1
    17    7   16 1
    18    7   17 1
    19    7   18 1
    20    8   19 1
    21    8   20 1
    22    8   21 1
    23    9   22 1
    24    9   23 1
