@<TRIPOS>MOLECULE
DB00342
   76    79     0     0     0
SMALL
USER_CHARGES

@<TRIPOS>ATOM
      1 O1          3.0805    0.4003   -1.7978 O.3       1 <0>        -0.3790
      2 O2         -3.4309   -3.6065   -2.2770 O.3       1 <0>        -0.3872
      3 N1          0.6714   -2.3669    0.6792 N.3       1 <0>        -0.3023
      4 C1          2.8251   -0.3975    0.3998 C.3       1 <0>        -0.0014
      5 C2          2.9570   -1.8379   -0.1062 C.3       1 <0>        -0.0341
      6 C3          1.3463    0.0017    0.4457 C.3       1 <0>        -0.0341
      7 C4          3.6268    0.5656   -0.4713 C.3       1 <0>         0.1187
      8 C5          2.0767   -2.7944    0.7008 C.3       1 <0>        -0.0008
      9 C6          0.5197   -1.0156    1.2350 C.3       1 <0>        -0.0008
     10 C7         -0.1643   -3.3184    1.4114 C.3       1 <0>        -0.0010
     11 C8          5.1088    0.1502   -0.4677 C.ar      1 <0>        -0.0115
     12 C9          3.4809    2.0558   -0.1167 C.ar      1 <0>        -0.0115
     13 C10        -1.6375   -3.1596    1.0343 C.3       1 <0>        -0.0376
     14 C11        -1.8551   -3.4223   -0.4588 C.3       1 <0>        -0.0215
     15 C12         5.6947   -0.3530   -1.6292 C.ar      1 <0>        -0.0555
     16 C13         3.3320    2.4447    1.2146 C.ar      1 <0>        -0.0555
     17 C14         5.8661    0.2772    0.6968 C.ar      1 <0>        -0.0555
     18 C15         3.4979    3.0180   -1.1264 C.ar      1 <0>        -0.0555
     19 C16        -3.3264   -3.3005   -0.8852 C.3       1 <0>         0.0802
     20 C17         7.0379   -0.7292   -1.6262 C.ar      1 <0>        -0.0614
     21 C18         3.2002    3.7955    1.5361 C.ar      1 <0>        -0.0614
     22 C19         7.2093   -0.0988    0.6999 C.ar      1 <0>        -0.0614
     23 C20         3.3661    4.3689   -0.8050 C.ar      1 <0>        -0.0614
     24 C21        -3.9171   -1.9273   -0.6644 C.ar      1 <0>        -0.0191
     25 C22         7.7952   -0.6020   -0.4615 C.ar      1 <0>        -0.0617
     26 C23         3.2172    4.7576    0.5263 C.ar      1 <0>        -0.0617
     27 C24        -5.5883    1.9639   -0.0375 C.3       1 <0>        -0.0127
     28 C25        -5.0068    0.6081   -0.2564 C.ar      1 <0>        -0.0420
     29 C26        -5.0588   -1.7773    0.1227 C.ar      1 <0>        -0.0559
     30 C27        -3.3201   -0.8095   -1.2473 C.ar      1 <0>        -0.0559
     31 C28        -5.6037   -0.5096    0.3268 C.ar      1 <0>        -0.0577
     32 C29        -3.8649    0.4581   -1.0433 C.ar      1 <0>        -0.0577
     33 C30        -4.8340    3.1398   -0.7422 C.3       1 <0>        -0.0560
     34 C31        -5.6085    2.3328    1.4783 C.3       1 <0>        -0.0560
     35 C32        -7.0567    2.0408   -0.5597 C.3       1 <0>        -0.0560
     36 H1          3.1995   -0.3890    1.4327 H         1 <0>         0.0336
     37 H2          3.9898   -2.1948   -0.0272 H         1 <0>         0.0281
     38 H3          2.6713   -1.9167   -1.1629 H         1 <0>         0.0281
     39 H4          0.9195    0.0624   -0.5628 H         1 <0>         0.0281
     40 H5          1.1931    0.9802    0.9086 H         1 <0>         0.0281
     41 H6          2.4492   -2.8600    1.7318 H         1 <0>         0.0427
     42 H7          2.1694   -3.7933    0.2570 H         1 <0>         0.0427
     43 H8         -0.5224   -0.6834    1.1866 H         1 <0>         0.0427
     44 H9          0.8194   -0.9893    2.2911 H         1 <0>         0.0427
     45 H10        -0.0386   -3.2140    2.4967 H         1 <0>         0.0426
     46 H11         0.1283   -4.3474    1.1634 H         1 <0>         0.0426
     47 H12        -2.2204   -3.8902    1.6096 H         1 <0>         0.0278
     48 H13        -2.0169   -2.1759    1.3258 H         1 <0>         0.0278
     49 H14         2.2630    0.9184   -1.8836 H         1 <0>         0.2111
     50 H15        -1.2386   -2.7518   -1.0696 H         1 <0>         0.0294
     51 H16        -1.5064   -4.4335   -0.7077 H         1 <0>         0.0294
     52 H17         5.1384   -0.4693   -2.5542 H         1 <0>         0.0621
     53 H18         3.3232    1.7275    2.0290 H         1 <0>         0.0621
     54 H19         5.4369    0.6504    1.6208 H         1 <0>         0.0621
     55 H20         3.6332    2.7505   -2.1706 H         1 <0>         0.0621
     56 H21        -3.9116   -4.0577   -0.3499 H         1 <0>         0.0643
     57 H22         7.4943   -1.1221   -2.5299 H         1 <0>         0.0618
     58 H23         3.0867    4.0988    2.5728 H         1 <0>         0.0618
     59 H24         7.7982   -0.0033    1.6075 H         1 <0>         0.0618
     60 H25         3.3843    5.1187   -1.5906 H         1 <0>         0.0618
     61 H26         8.8407   -0.8959   -0.4589 H         1 <0>         0.0618
     62 H27         3.1162    5.8096    0.7768 H         1 <0>         0.0618
     63 H28        -5.5341   -2.6391    0.5836 H         1 <0>         0.0621
     64 H29        -2.4353   -0.9067   -1.8703 H         1 <0>         0.0621
     65 H30        -4.3399   -3.4119   -2.5630 H         1 <0>         0.2102
     66 H31        -6.4928   -0.4216    0.9445 H         1 <0>         0.0621
     67 H32        -3.3618    1.2916   -1.5209 H         1 <0>         0.0621
     68 H33        -5.3200    4.1011   -0.5351 H         1 <0>         0.0238
     69 H34        -3.7992    3.2220   -0.3897 H         1 <0>         0.0238
     70 H35        -4.8231    3.0148   -1.8313 H         1 <0>         0.0238
     71 H36        -6.0094    3.3405    1.6382 H         1 <0>         0.0238
     72 H37        -6.2294    1.6422    2.0593 H         1 <0>         0.0238
     73 H38        -4.5967    2.3021    1.8997 H         1 <0>         0.0238
     74 H39        -7.7159    1.3427   -0.0320 H         1 <0>         0.0238
     75 H40        -7.1033    1.7965   -1.6276 H         1 <0>         0.0238
     76 H41        -7.4756    3.0448   -0.4255 H         1 <0>         0.0238
@<TRIPOS>BOND
     1    1    7 1
     2    1   49 1
     3    2   19 1
     4    2   65 1
     5    3    8 1
     6    3    9 1
     7    3   10 1
     8    4    5 1
     9    4    6 1
    10    4    7 1
    11    4   36 1
    12    5    8 1
    13    5   37 1
    14    5   38 1
    15    6    9 1
    16    6   39 1
    17    6   40 1
    18    7   11 1
    19    7   12 1
    20    8   41 1
    21    8   42 1
    22    9   43 1
    23    9   44 1
    24   10   13 1
    25   10   45 1
    26   10   46 1
    27   11   15 ar
    28   11   17 ar
    29   12   16 ar
    30   12   18 ar
    31   13   14 1
    32   13   47 1
    33   13   48 1
    34   14   19 1
    35   14   50 1
    36   14   51 1
    37   15   20 ar
    38   15   52 1
    39   16   21 ar
    40   16   53 1
    41   17   22 ar
    42   17   54 1
    43   18   23 ar
    44   18   55 1
    45   19   24 1
    46   19   56 1
    47   20   25 ar
    48   20   57 1
    49   21   26 ar
    50   21   58 1
    51   22   25 ar
    52   22   59 1
    53   23   26 ar
    54   23   60 1
    55   24   29 ar
    56   24   30 ar
    57   25   61 1
    58   26   62 1
    59   27   28 1
    60   27   33 1
    61   27   34 1
    62   27   35 1
    63   28   31 ar
    64   28   32 ar
    65   29   31 ar
    66   29   63 1
    67   30   32 ar
    68   30   64 1
    69   31   66 1
    70   32   67 1
    71   33   68 1
    72   33   69 1
    73   33   70 1
    74   34   71 1
    75   34   72 1
    76   34   73 1
    77   35   74 1
    78   35   75 1
    79   35   76 1
