@<TRIPOS>MOLECULE
DB00974
   36    35     0     0     0
SMALL
USER_CHARGES

@<TRIPOS>ATOM
      1 O1         -4.1939   -2.3386    1.3890 O.3       1 <0>        -0.4797
      2 O2         -2.9992    2.5257   -2.2698 O.3       1 <0>        -0.4797
      3 O3          4.1540   -2.3848   -1.3719 O.3       1 <0>        -0.4797
      4 O4          3.0456    2.5242    2.2506 O.3       1 <0>        -0.4797
      5 O5         -3.4937   -0.3203    2.1627 O.2       1 <0>        -0.2496
      6 O6         -2.3691    2.6768   -0.0922 O.2       1 <0>        -0.2496
      7 O7          3.4818   -0.3633   -2.1619 O.2       1 <0>        -0.2496
      8 O8          2.4114    2.6699    0.0737 O.2       1 <0>        -0.2496
      9 N1         -1.8677   -0.0252   -0.0339 N.3       1 <0>        -0.2812
     10 N2          1.8646   -0.0242    0.0356 N.3       1 <0>        -0.2812
     11 C1         -0.5069   -0.0304   -0.5697 C.3       1 <0>         0.0128
     12 C2          0.5073   -0.0010    0.5698 C.3       1 <0>         0.0128
     13 C3         -2.2594   -1.3721    0.3795 C.3       1 <0>         0.0972
     14 C4         -2.8058    0.4981   -1.0261 C.3       1 <0>         0.0972
     15 C5          2.2361   -1.3815   -0.3670 C.3       1 <0>         0.0972
     16 C6          2.8151    0.4912    1.0223 C.3       1 <0>         0.0972
     17 C7         -3.3669   -1.2622    1.3907 C.2       1 <0>         0.3190
     18 C8         -2.6837    1.9964   -1.0604 C.2       1 <0>         0.3190
     19 C9          3.3429   -1.2965   -1.3813 C.2       1 <0>         0.3190
     20 C10         2.7179    1.9916    1.0459 C.2       1 <0>         0.3190
     21 H1         -0.3701   -0.8827   -1.2457 H         1 <0>         0.0439
     22 H2         -0.3256    0.8656   -1.1793 H         1 <0>         0.0439
     23 H3          0.3269    0.9235    1.1352 H         1 <0>         0.0439
     24 H4          0.3640   -0.8220    1.2830 H         1 <0>         0.0439
     25 H5         -1.4531   -1.9164    0.8825 H         1 <0>         0.0542
     26 H6         -2.5850   -1.9756   -0.4767 H         1 <0>         0.0542
     27 H7         -3.8488    0.2900   -0.7591 H         1 <0>         0.0542
     28 H8         -2.6187    0.0765   -2.0212 H         1 <0>         0.0542
     29 H9          1.4247   -1.9243   -0.8623 H         1 <0>         0.0542
     30 H10         2.5566   -1.9799    0.4946 H         1 <0>         0.0542
     31 H11         3.8536    0.2637    0.7540 H         1 <0>         0.0542
     32 H12         2.6229    0.0802    2.0207 H         1 <0>         0.0542
     33 H13        -4.8993   -2.2590    2.0660 H         1 <0>         0.2951
     34 H14        -2.9318    3.5043   -2.2698 H         1 <0>         0.2951
     35 H15         4.8591   -2.3213   -2.0510 H         1 <0>         0.2951
     36 H16         2.9942    3.5038    2.2436 H         1 <0>         0.2951
@<TRIPOS>BOND
     1    1   17 1
     2    1   33 1
     3    2   18 1
     4    2   34 1
     5    3   19 1
     6    3   35 1
     7    4   20 1
     8    4   36 1
     9    5   17 2
    10    6   18 2
    11    7   19 2
    12    8   20 2
    13    9   11 1
    14    9   13 1
    15    9   14 1
    16   10   12 1
    17   10   15 1
    18   10   16 1
    19   11   12 1
    20   11   21 1
    21   11   22 1
    22   12   23 1
    23   12   24 1
    24   13   17 1
    25   13   25 1
    26   13   26 1
    27   14   18 1
    28   14   27 1
    29   14   28 1
    30   15   19 1
    31   15   29 1
    32   15   30 1
    33   16   20 1
    34   16   31 1
    35   16   32 1
