@<TRIPOS>MOLECULE
DB00580
   36    38     0     0     0
SMALL
USER_CHARGES

@<TRIPOS>ATOM
      1 S1          4.4881    0.8344   -0.0004 S.o2      1 <0>         0.0559
      2 O1         -2.5632   -3.1331    0.0000 O.3       1 <0>        -0.3587
      3 O2          5.1377    0.4991    1.2590 O.2       1 <0>        -0.1533
      4 O3          5.1386    0.5029   -1.2605 O.2       1 <0>        -0.1533
      5 N1         -3.2251   -1.9113   -0.0000 N.2       1 <0>        -0.0774
      6 N2          4.1115    2.5011    0.0002 N.pl3     1 <0>        -0.2035
      7 C1         -0.9778   -1.5717    0.0001 C.2       1 <0>         0.0516
      8 C2          0.3365   -0.9925    0.0001 C.ar      1 <0>        -0.0123
      9 C3         -2.2551   -0.9926   -0.0000 C.2       1 <0>         0.1213
     10 C4         -1.2230   -2.9167    0.0001 C.2       1 <0>         0.1425
     11 C5          2.8897    0.1323    0.0002 C.ar      1 <0>         0.1050
     12 C6          0.9748   -0.7112    1.2081 C.ar      1 <0>        -0.0520
     13 C7          0.9749   -0.7115   -1.2079 C.ar      1 <0>        -0.0520
     14 C8         -2.5852    0.4091   -0.0001 C.ar      1 <0>         0.0043
     15 C9          2.2513   -0.1487    1.2082 C.ar      1 <0>        -0.0348
     16 C10         2.2515   -0.1493   -1.2078 C.ar      1 <0>        -0.0348
     17 C11        -0.3752   -4.1179    0.0000 C.3       1 <0>        -0.0031
     18 C12        -2.7442    1.0840   -1.2080 C.ar      1 <0>        -0.0524
     19 C13        -2.7436    1.0843    1.2079 C.ar      1 <0>        -0.0524
     20 C14        -3.0636    2.4420   -1.2080 C.ar      1 <0>        -0.0611
     21 C15        -3.0632    2.4421    1.2080 C.ar      1 <0>        -0.0611
     22 C16        -3.2232    3.1209    0.0001 C.ar      1 <0>        -0.0617
     23 H1          0.4901   -0.9224    2.1585 H         1 <0>         0.0624
     24 H2          0.4904   -0.9229   -2.1584 H         1 <0>         0.0624
     25 H3          2.7266    0.0682    2.1606 H         1 <0>         0.0637
     26 H4          2.7272    0.0671   -2.1602 H         1 <0>         0.0637
     27 H5          0.2655   -4.1366   -0.8870 H         1 <0>         0.0309
     28 H6          0.2655   -4.1366    0.8872 H         1 <0>         0.0309
     29 H7         -0.9753   -5.0334   -0.0000 H         1 <0>         0.0309
     30 H8         -2.6223    0.5693   -2.1581 H         1 <0>         0.0624
     31 H9         -2.6214    0.5695    2.1579 H         1 <0>         0.0624
     32 H10        -3.1877    2.9707   -2.1485 H         1 <0>         0.0618
     33 H11        -3.1869    2.9710    2.1485 H         1 <0>         0.0618
     34 H12        -3.4716    4.1782    0.0000 H         1 <0>         0.0618
     35 H13         4.2944    3.0310    0.8611 H         1 <0>         0.1442
     36 H14         4.2935    3.0313   -0.8607 H         1 <0>         0.1442
@<TRIPOS>BOND
     1    1    3 2
     2    1    4 2
     3    1    6 1
     4    1   11 1
     5    2    5 1
     6    2   10 1
     7    5    9 2
     8    6   35 1
     9    6   36 1
    10    7    8 1
    11    7    9 1
    12    7   10 2
    13    8   12 ar
    14    8   13 ar
    15    9   14 1
    16   10   17 1
    17   11   15 ar
    18   11   16 ar
    19   12   15 ar
    20   12   23 1
    21   13   16 ar
    22   13   24 1
    23   14   18 ar
    24   14   19 ar
    25   15   25 1
    26   16   26 1
    27   17   27 1
    28   17   28 1
    29   17   29 1
    30   18   20 ar
    31   18   30 1
    32   19   21 ar
    33   19   31 1
    34   20   22 ar
    35   20   32 1
    36   21   22 ar
    37   21   33 1
    38   22   34 1
