@<TRIPOS>MOLECULE
DB00242
   31    33     0     0     0
SMALL
USER_CHARGES

@<TRIPOS>ATOM
      1 Cl1         1.7096   -3.6815   -0.1548 Cl        1 <0>        -0.0409
      2 O1         -1.3273    0.0516    1.1041 O.3       1 <0>        -0.3484
      3 O2         -3.7396    1.6486    0.0266 O.3       1 <0>        -0.3890
      4 O3         -1.9561   -2.6675    0.9418 O.3       1 <0>        -0.3924
      5 N1          0.5894    1.1929    0.2968 N.pl3     1 <0>        -0.2878
      6 N2          2.6905    1.9410    0.1945 N.2       1 <0>        -0.2306
      7 N3          0.9913   -1.1943    0.0877 N.2       1 <0>        -0.1976
      8 N4          3.3733   -1.6799   -0.1274 N.2       1 <0>        -0.2006
      9 N5          5.0402    0.0365   -0.1227 N.pl3     1 <0>        -0.3413
     10 C1         -0.8646    1.2211    0.4065 C.3       1 <0>         0.1408
     11 C2         -2.9253    0.6379   -0.5638 C.3       1 <0>         0.0876
     12 C3         -1.5929    1.2511   -0.9294 C.3       1 <0>         0.0213
     13 C4         -2.5535   -0.3991    0.4907 C.3       1 <0>         0.1100
     14 C5         -2.3038   -1.7780   -0.1046 C.3       1 <0>         0.0729
     15 C6          1.3823    0.0871    0.1545 C.2       1 <0>         0.1688
     16 C7          1.4243    2.2814    0.3148 C.cat     1 <0>         0.1003
     17 C8          2.6789    0.5725    0.0935 C.2       1 <0>         0.1474
     18 C9          3.6955   -0.3660   -0.0528 C.2       1 <0>         0.1487
     19 C10         2.0607   -2.0075   -0.0536 C.2       1 <0>         0.2264
     20 H1         -1.1208    2.0915    1.0224 H         1 <0>         0.0840
     21 H2         -3.4693    0.2305   -1.4199 H         1 <0>         0.0621
     22 H3         -1.0810    0.6227   -1.6679 H         1 <0>         0.0335
     23 H4         -1.6637    2.2678   -1.3277 H         1 <0>         0.0335
     24 H5         -3.3019   -0.4663    1.2884 H         1 <0>         0.0646
     25 H6         -1.4833   -1.7656   -0.8279 H         1 <0>         0.0584
     26 H7         -3.2055   -2.1556   -0.5971 H         1 <0>         0.0584
     27 H8          1.0520    3.2918    0.4159 H         1 <0>         0.1030
     28 H9         -3.3414    1.9227    0.8696 H         1 <0>         0.2099
     29 H10        -1.8026   -3.5388    0.5384 H         1 <0>         0.2095
     30 H11         5.2838    1.0162   -0.0676 H         1 <0>         0.1438
     31 H12         5.7605   -0.6647   -0.2294 H         1 <0>         0.1438
@<TRIPOS>BOND
     1    1   19 1
     2    2   10 1
     3    2   13 1
     4    3   11 1
     5    3   28 1
     6    4   14 1
     7    4   29 1
     8    5   10 1
     9    5   15 1
    10    5   16 2
    11    6   16 1
    12    6   17 2
    13    7   15 2
    14    7   19 1
    15    8   18 1
    16    8   19 2
    17    9   18 1
    18    9   30 1
    19    9   31 1
    20   10   12 1
    21   10   20 1
    22   11   12 1
    23   11   13 1
    24   11   21 1
    25   12   22 1
    26   12   23 1
    27   13   14 1
    28   13   24 1
    29   14   25 1
    30   14   26 1
    31   15   17 1
    32   16   27 1
    33   17   18 2
