@<TRIPOS>MOLECULE
DB00151
   14    13     0     0     0
SMALL
USER_CHARGES

@<TRIPOS>ATOM
      1 S1         -1.6673   -0.9004    1.2728 S.3       1 <0>        -0.1723
      2 O1          0.9422    2.2454    0.3252 O.co2     1 <0>        -0.5441
      3 O2         -1.1909    2.0018   -0.4465 O.co2     1 <0>        -0.5441
      4 N1          1.3798   -0.4740    0.3168 N.4       1 <0>         0.2255
      5 C1          0.2671    0.1232   -0.4898 C.3       1 <0>         0.0249
      6 C2         -0.9234   -0.8342   -0.3900 C.3       1 <0>         0.0391
      7 C3         -0.0214    1.6036   -0.1823 C.2       1 <0>         0.0901
      8 H1          0.6376    0.0994   -1.5223 H         1 <0>         0.0923
      9 H2         -1.7104   -0.5297   -1.0883 H         1 <0>         0.0433
     10 H3         -0.6254   -1.8512   -0.6684 H         1 <0>         0.0433
     11 H4          2.2389    0.0858    0.2338 H         1 <0>         0.2001
     12 H5          1.6063   -1.4286    0.0070 H         1 <0>         0.2001
     13 H6          1.1366   -0.5190    1.3154 H         1 <0>         0.2001
     14 H7         -2.0698    0.3780    1.3165 H         1 <0>         0.1018
@<TRIPOS>BOND
     1    1    6 1
     2    1   14 1
     3    2    7 2
     4    3    7 1
     5    4    5 1
     6    4   11 1
     7    4   12 1
     8    4   13 1
     9    5    6 1
    10    5    7 1
    11    5    8 1
    12    6    9 1
    13    6   10 1
