@<TRIPOS>MOLECULE
DB00374
   62    64     0     0     0
SMALL
USER_CHARGES

@<TRIPOS>ATOM
      1 O1         -0.8186    0.4959    1.5866 O.3       1 <0>        -0.3915
      2 O2          5.0681    1.5206   -0.4974 O.3       1 <0>        -0.4805
      3 O3         -1.9189   -2.4715   -1.7258 O.3       1 <0>        -0.3918
      4 O4          4.4981    5.0121    0.0940 O.3       1 <0>        -0.4783
      5 O5          5.4743    3.4267    1.4061 O.2       1 <0>        -0.2472
      6 C1          1.8074   -2.0520    1.2283 C.3       1 <0>        -0.0287
      7 C2          2.5705   -0.8799    1.9067 C.3       1 <0>        -0.0311
      8 C3          0.4006   -1.4928    0.9140 C.3       1 <0>        -0.0115
      9 C4          0.2087   -0.4007    1.9634 C.3       1 <0>         0.0586
     10 C5          1.5668    0.2816    1.9699 C.3       1 <0>        -0.0232
     11 C6          2.5051   -2.6393   -0.0070 C.3       1 <0>        -0.0239
     12 C7          3.8886   -0.4805    1.2331 C.3       1 <0>        -0.0208
     13 C8         -0.6959   -2.5503    0.9625 C.3       1 <0>        -0.0453
     14 C9          3.1006   -1.5670   -0.8808 C.ar      1 <0>        -0.0404
     15 C10         3.7824   -0.5012   -0.2686 C.ar      1 <0>        -0.0022
     16 C11        -2.0873   -1.9956    0.6414 C.3       1 <0>        -0.0265
     17 C12         4.3848    0.4833   -1.0577 C.ar      1 <0>         0.1247
     18 C13        -2.2388   -1.4461   -0.7842 C.3       1 <0>         0.0553
     19 C14         3.0282   -1.6365   -2.2754 C.ar      1 <0>        -0.0581
     20 C15        -3.6567   -0.9466   -1.0943 C.3       1 <0>        -0.0269
     21 C16         4.2969    0.4141   -2.4481 C.ar      1 <0>        -0.0196
     22 C17         3.6203   -0.6432   -3.0555 C.ar      1 <0>        -0.0580
     23 C18        -4.0920    0.2398   -0.2332 C.3       1 <0>        -0.0507
     24 C19        -5.4779    0.7431   -0.6440 C.3       1 <0>        -0.0532
     25 C20         4.5957    2.8359   -0.7809 C.3       1 <0>         0.1857
     26 C21        -5.8997    1.9529    0.1896 C.3       1 <0>        -0.0559
     27 C22         4.9171    3.7508    0.3681 C.2       1 <0>         0.3427
     28 C23        -7.2898    2.4355   -0.1930 C.3       1 <0>        -0.0653
     29 H1          1.7033   -2.8604    1.9658 H         1 <0>         0.0310
     30 H2          2.7980   -1.1723    2.9412 H         1 <0>         0.0308
     31 H3          0.4100   -1.0349   -0.0829 H         1 <0>         0.0328
     32 H4         -0.0252   -0.8231    2.9481 H         1 <0>         0.0596
     33 H5          1.6609    0.9557    1.1092 H         1 <0>         0.0293
     34 H6          1.7065    0.8960    2.8658 H         1 <0>         0.0293
     35 H7          3.3220   -3.2982    0.3142 H         1 <0>         0.0316
     36 H8          1.8046   -3.2604   -0.5771 H         1 <0>         0.0316
     37 H9          4.2012    0.5014    1.6059 H         1 <0>         0.0317
     38 H10         4.6744   -1.1915    1.5193 H         1 <0>         0.0317
     39 H11        -0.4580   -3.3632    0.2664 H         1 <0>         0.0270
     40 H12        -0.7283   -3.0059    1.9606 H         1 <0>         0.0270
     41 H13        -2.7865   -2.8362    0.7512 H         1 <0>         0.0290
     42 H14        -2.3904   -1.2660    1.3949 H         1 <0>         0.0290
     43 H15        -0.8283    1.2182    2.2374 H         1 <0>         0.2098
     44 H16        -1.5381   -0.6215   -0.9491 H         1 <0>         0.0593
     45 H17         2.5136   -2.4609   -2.7614 H         1 <0>         0.0620
     46 H18        -3.7078   -0.6650   -2.1544 H         1 <0>         0.0290
     47 H19        -4.3683   -1.7744   -0.9785 H         1 <0>         0.0290
     48 H20         4.7646    1.1690   -3.0744 H         1 <0>         0.0654
     49 H21         3.5612   -0.6980   -4.1387 H         1 <0>         0.0619
     50 H22        -4.1218   -0.0459    0.8235 H         1 <0>         0.0266
     51 H23        -3.3612    1.0514   -0.3321 H         1 <0>         0.0266
     52 H24        -1.9621   -2.0793   -2.6145 H         1 <0>         0.2098
     53 H25        -5.4716    1.0159   -1.7063 H         1 <0>         0.0265
     54 H26        -6.2110   -0.0635   -0.5217 H         1 <0>         0.0265
     55 H27         5.1022    3.2071   -1.6776 H         1 <0>         0.0815
     56 H28         3.5080    2.8373   -0.9216 H         1 <0>         0.0815
     57 H29        -5.8914    1.6929    1.2545 H         1 <0>         0.0263
     58 H30        -5.1828    2.7702    0.0493 H         1 <0>         0.0263
     59 H31        -8.0359    1.6507   -0.0317 H         1 <0>         0.0230
     60 H32        -7.5710    3.3015    0.4144 H         1 <0>         0.0230
     61 H33        -7.3256    2.7328   -1.2460 H         1 <0>         0.0230
     62 H34         4.6960    5.6312    0.8287 H         1 <0>         0.2952
@<TRIPOS>BOND
     1    1    9 1
     2    1   43 1
     3    2   17 1
     4    2   25 1
     5    3   18 1
     6    3   52 1
     7    4   27 1
     8    4   62 1
     9    5   27 2
    10    6    7 1
    11    6    8 1
    12    6   11 1
    13    6   29 1
    14    7   10 1
    15    7   12 1
    16    7   30 1
    17    8    9 1
    18    8   13 1
    19    8   31 1
    20    9   10 1
    21    9   32 1
    22   10   33 1
    23   10   34 1
    24   11   14 1
    25   11   35 1
    26   11   36 1
    27   12   15 1
    28   12   37 1
    29   12   38 1
    30   13   16 1
    31   13   39 1
    32   13   40 1
    33   14   15 ar
    34   14   19 ar
    35   15   17 ar
    36   16   18 1
    37   16   41 1
    38   16   42 1
    39   17   21 ar
    40   18   20 1
    41   18   44 1
    42   19   22 ar
    43   19   45 1
    44   20   23 1
    45   20   46 1
    46   20   47 1
    47   21   22 ar
    48   21   48 1
    49   22   49 1
    50   23   24 1
    51   23   50 1
    52   23   51 1
    53   24   26 1
    54   24   53 1
    55   24   54 1
    56   25   27 1
    57   25   55 1
    58   25   56 1
    59   26   28 1
    60   26   57 1
    61   26   58 1
    62   28   59 1
    63   28   60 1
    64   28   61 1
