@<TRIPOS>MOLECULE
DB00741
   56    59     0     0     0
SMALL
USER_CHARGES

@<TRIPOS>ATOM
      1 O1         -3.0714    0.0265    2.0661 O.3       1 <0>        -0.3804
      2 O2          0.4689    2.1810   -1.1010 O.3       1 <0>        -0.3915
      3 O3         -4.1238    2.0298    0.0182 O.2       1 <0>        -0.2919
      4 O4         -6.6694    1.1146    0.5229 O.3       1 <0>        -0.3874
      5 O5          6.4687   -0.3615    1.6055 O.2       1 <0>        -0.2927
      6 C1         -1.7932    0.3612   -0.0076 C.3       1 <0>         0.0091
      7 C2         -0.9863   -0.9315    0.2413 C.3       1 <0>        -0.0292
      8 C3          0.4304   -0.8958   -0.3514 C.3       1 <0>        -0.0314
      9 C4          1.2167    0.2919    0.2931 C.3       1 <0>        -0.0028
     10 C5         -3.1420   -0.0494    0.6454 C.3       1 <0>         0.1315
     11 C6         -1.0358    1.5179    0.6758 C.3       1 <0>        -0.0179
     12 C7          2.7295    0.3534   -0.1705 C.3       1 <0>        -0.0049
     13 C8          0.4328    1.6389    0.2116 C.3       1 <0>         0.0597
     14 C9         -1.9425   -2.0364   -0.1999 C.3       1 <0>        -0.0463
     15 C10        -3.3354   -1.5238    0.2223 C.3       1 <0>        -0.0162
     16 C11         1.1552   -2.2241   -0.0830 C.3       1 <0>        -0.0459
     17 C12        -2.0165    0.6641   -1.5151 C.3       1 <0>        -0.0562
     18 C13         3.3640   -1.0344   -0.0055 C.2       1 <0>        -0.0600
     19 C14         2.5919   -2.1958   -0.5820 C.3       1 <0>        -0.0305
     20 C15         3.4679    1.3862    0.7302 C.3       1 <0>        -0.0366
     21 C16         2.9067    0.7617   -1.6505 C.3       1 <0>        -0.0555
     22 C17        -4.2918    0.8372    0.2687 C.2       1 <0>         0.1902
     23 C18         4.9826    1.2691    0.6742 C.3       1 <0>         0.0107
     24 C19         4.5547   -1.2544    0.5767 C.2       1 <0>        -0.0194
     25 C20         5.4089   -0.1315    1.0268 C.2       1 <0>         0.1561
     26 C21        -5.6552    0.1813    0.2168 C.3       1 <0>         0.1052
     27 H1         -0.8601   -1.0589    1.3295 H         1 <0>         0.0310
     28 H2          0.3785   -0.7612   -1.4362 H         1 <0>         0.0307
     29 H3          1.2477    0.0576    1.3708 H         1 <0>         0.0337
     30 H4         -1.0244    1.3687    1.7626 H         1 <0>         0.0297
     31 H5         -1.5588    2.4642    0.4944 H         1 <0>         0.0297
     32 H6          0.9212    2.3722    0.8631 H         1 <0>         0.0596
     33 H7         -1.7137   -2.9940    0.2788 H         1 <0>         0.0269
     34 H8         -1.9027   -2.1896   -1.2844 H         1 <0>         0.0269
     35 H9         -4.0100   -1.6487   -0.6310 H         1 <0>         0.0297
     36 H10        -3.7191   -2.1372    1.0457 H         1 <0>         0.0297
     37 H11         0.6285   -3.0468   -0.5805 H         1 <0>         0.0271
     38 H12         1.1465   -2.4471    0.9921 H         1 <0>         0.0271
     39 H13        -2.3843    1.6837   -1.6704 H         1 <0>         0.0236
     40 H14        -1.1021    0.5766   -2.1058 H         1 <0>         0.0236
     41 H15        -2.7412   -0.0143   -1.9778 H         1 <0>         0.0236
     42 H16         2.5997   -2.1229   -1.6765 H         1 <0>         0.0310
     43 H17         3.0685   -3.1527   -0.3359 H         1 <0>         0.0310
     44 H18         3.1574    1.2486    1.7756 H         1 <0>         0.0278
     45 H19         3.1853    2.4098    0.4562 H         1 <0>         0.0278
     46 H20         2.2177    0.2286   -2.3129 H         1 <0>         0.0238
     47 H21         2.7522    1.8346   -1.8004 H         1 <0>         0.0238
     48 H22         3.9213    0.5471   -2.0084 H         1 <0>         0.0238
     49 H23        -3.8647   -0.3953    2.4377 H         1 <0>         0.2108
     50 H24         5.4239    1.9607    1.4003 H         1 <0>         0.0345
     51 H25         5.3747    1.5187   -0.3168 H         1 <0>         0.0345
     52 H26         0.0127    3.0393   -1.0806 H         1 <0>         0.2098
     53 H27         4.9653   -2.2526    0.6838 H         1 <0>         0.0652
     54 H28        -5.7249   -0.6132    0.9635 H         1 <0>         0.0637
     55 H29        -5.8328   -0.2324   -0.7796 H         1 <0>         0.0637
     56 H30        -6.6779    1.7803   -0.1861 H         1 <0>         0.2100
@<TRIPOS>BOND
     1    1   10 1
     2    1   49 1
     3    2   13 1
     4    2   52 1
     5    3   22 2
     6    4   26 1
     7    4   56 1
     8    5   25 2
     9    6    7 1
    10    6   10 1
    11    6   11 1
    12    6   17 1
    13    7    8 1
    14    7   14 1
    15    7   27 1
    16    8    9 1
    17    8   16 1
    18    8   28 1
    19    9   12 1
    20    9   13 1
    21    9   29 1
    22   10   15 1
    23   10   22 1
    24   11   13 1
    25   11   30 1
    26   11   31 1
    27   12   18 1
    28   12   20 1
    29   12   21 1
    30   13   32 1
    31   14   15 1
    32   14   33 1
    33   14   34 1
    34   15   35 1
    35   15   36 1
    36   16   19 1
    37   16   37 1
    38   16   38 1
    39   17   39 1
    40   17   40 1
    41   17   41 1
    42   18   19 1
    43   18   24 2
    44   19   42 1
    45   19   43 1
    46   20   23 1
    47   20   44 1
    48   20   45 1
    49   21   46 1
    50   21   47 1
    51   21   48 1
    52   22   26 1
    53   23   25 1
    54   23   50 1
    55   23   51 1
    56   24   25 1
    57   24   53 1
    58   26   54 1
    59   26   55 1
