@<TRIPOS>MOLECULE
DB00359
   27    28     0     0     0
SMALL
USER_CHARGES

@<TRIPOS>ATOM
      1 S1          0.4357    2.4791   -0.6208 S.o2      1 <0>         0.0746
      2 O1         -0.1458    3.7377   -0.1693 O.2       1 <0>        -0.1499
      3 O2          0.9807    2.4015   -1.9707 O.2       1 <0>        -0.1499
      4 N1          1.6421    2.0091    0.5159 N.pl3     1 <0>        -0.1836
      5 N2         -3.6930   -1.7532    0.0115 N.pl3     1 <0>        -0.3580
      6 N3          1.8266   -0.1265    1.5006 N.ar      1 <0>        -0.2217
      7 N4          2.8520    0.3394   -0.6298 N.ar      1 <0>        -0.2217
      8 C1         -0.7764    1.2363   -0.4351 C.ar      1 <0>         0.1087
      9 C2         -1.8064    1.3995    0.4914 C.ar      1 <0>        -0.0333
     10 C3         -0.7150    0.0800   -1.2130 C.ar      1 <0>        -0.0333
     11 C4         -2.7133   -0.7494   -0.1378 C.ar      1 <0>         0.0247
     12 C5         -2.7748    0.4066    0.6399 C.ar      1 <0>        -0.0392
     13 C6         -1.6834   -0.9128   -1.0644 C.ar      1 <0>        -0.0392
     14 C7          2.1367    0.6599    0.4589 C.ar      1 <0>         0.2347
     15 C8          2.3055   -1.3849    1.4142 C.ar      1 <0>         0.0327
     16 C9          3.2994   -0.9331   -0.6508 C.ar      1 <0>         0.0327
     17 C10         3.0552   -1.8486    0.3525 C.ar      1 <0>        -0.0253
     18 H1         -1.8703    2.2880    1.1132 H         1 <0>         0.0638
     19 H2          0.0779   -0.0693   -1.9404 H         1 <0>         0.0638
     20 H3          1.4826    2.3361    1.4778 H         1 <0>         0.1767
     21 H4         -3.5715    0.5447    1.3664 H         1 <0>         0.0636
     22 H5         -1.6244   -1.8094   -1.6760 H         1 <0>         0.0636
     23 H6         -4.4390   -1.6363    0.6841 H         1 <0>         0.1423
     24 H7         -3.6477   -2.5924   -0.5510 H         1 <0>         0.1423
     25 H8          2.0615   -2.0322    2.2498 H         1 <0>         0.0831
     26 H9          3.8789   -1.2063   -1.5262 H         1 <0>         0.0831
     27 H10         3.4263   -2.8636    0.3091 H         1 <0>         0.0648
@<TRIPOS>BOND
     1    1    2 2
     2    1    3 2
     3    1    4 1
     4    1    8 1
     5    4   14 1
     6    4   20 1
     7    5   11 1
     8    5   23 1
     9    5   24 1
    10    6   14 ar
    11    6   15 ar
    12    7   14 ar
    13    7   16 ar
    14    8    9 ar
    15    8   10 ar
    16    9   12 ar
    17    9   18 1
    18   10   13 ar
    19   10   19 1
    20   11   12 ar
    21   11   13 ar
    22   12   21 1
    23   13   22 1
    24   15   17 ar
    25   15   25 1
    26   16   17 ar
    27   16   26 1
    28   17   27 1
