@<TRIPOS>MOLECULE
DB00671
   45    47     0     0     0
SMALL
USER_CHARGES

@<TRIPOS>ATOM
      1 S1          1.1488   -1.9076   -1.4716 S.3       1 <0>        -0.1308
      2 S2         -5.9101   -2.5304    0.3003 S.3       1 <0>        -0.0604
      3 O1          1.2785    0.3254    2.6049 O.2       1 <0>        -0.2731
      4 O2          4.3971    0.0943    2.1728 O.3       1 <0>        -0.4762
      5 O3          4.2763    1.7124    0.5612 O.2       1 <0>        -0.2437
      6 O4         -1.8957   -0.0831    2.5303 O.2       1 <0>        -0.2683
      7 O5         -1.7643    2.0102    0.2463 O.3       1 <0>        -0.3816
      8 O6         -0.5127    5.2265   -0.7073 O.3       1 <0>        -0.4782
      9 O7          0.3945    3.6215    0.6301 O.2       1 <0>        -0.2471
     10 N1          2.1400   -0.8665    0.7602 N.am      1 <0>        -0.2487
     11 N2         -0.9210   -1.0141    0.6083 N.am      1 <0>        -0.2963
     12 N3         -2.9607    1.3490   -0.0642 N.2       1 <0>        -0.0771
     13 N4         -5.2467   -0.1718   -0.5236 N.2       1 <0>        -0.2233
     14 N5         -7.3595   -0.9370   -1.2591 N.pl3     1 <0>        -0.3375
     15 C1          1.4295   -2.0490    0.3072 C.3       1 <0>         0.1043
     16 C2          0.2745   -1.5889    1.2227 C.3       1 <0>         0.1286
     17 C3          1.2794   -0.5224    1.7433 C.2       1 <0>         0.2440
     18 C4          3.3070   -0.4305    0.2160 C.2       1 <0>         0.1259
     19 C5          2.9333   -1.8527   -1.8582 C.3       1 <0>         0.0226
     20 C6          3.7380   -0.8940   -0.9824 C.2       1 <0>        -0.0096
     21 C7          4.0415    0.5963    0.9749 C.2       1 <0>         0.3517
     22 C8         -1.8762   -0.3227    1.3338 C.2       1 <0>         0.2684
     23 C9          5.0002   -0.5296   -1.5986 C.2       1 <0>        -0.0629
     24 C10        -3.0176    0.1724    0.4836 C.2       1 <0>         0.1898
     25 C11         6.1289   -0.3974   -0.9125 C.2       1 <0>        -0.0983
     26 C12        -4.2129   -0.6470    0.2596 C.2       1 <0>         0.1067
     27 C13        -4.3905   -1.9064    0.7929 C.2       1 <0>         0.0067
     28 C14        -6.1950   -1.0807   -0.5724 C.2       1 <0>         0.1562
     29 C15        -1.7848    3.2795   -0.3882 C.3       1 <0>         0.2137
     30 C16        -0.5154    4.0236   -0.0794 C.2       1 <0>         0.3454
     31 H1          1.9061   -2.9825    0.6294 H         1 <0>         0.0644
     32 H2          0.0102   -2.3315    1.9850 H         1 <0>         0.0622
     33 H3         -1.0723   -1.1205   -0.3921 H         1 <0>         0.1499
     34 H4          3.0018   -1.5615   -2.9122 H         1 <0>         0.0426
     35 H5          3.3436   -2.8648   -1.7649 H         1 <0>         0.0426
     36 H6          5.0043   -0.3470   -2.6694 H         1 <0>         0.0615
     37 H7          7.0399   -0.1114   -1.4294 H         1 <0>         0.0535
     38 H8          6.2199   -0.6000    0.1480 H         1 <0>         0.0535
     39 H9          4.8917    0.7457    2.7143 H         1 <0>         0.2954
     40 H10        -3.7322   -2.4824    1.4280 H         1 <0>         0.0716
     41 H11        -1.8568    3.1425   -1.4726 H         1 <0>         0.0843
     42 H12        -2.6332    3.8618   -0.0128 H         1 <0>         0.0843
     43 H13        -8.0663   -1.6648   -1.2710 H         1 <0>         0.1442
     44 H14        -7.5676   -0.0965   -1.7882 H         1 <0>         0.1442
     45 H15         0.3064    5.7337   -0.5230 H         1 <0>         0.2952
@<TRIPOS>BOND
     1    1   15 1
     2    1   19 1
     3    2   27 1
     4    2   28 1
     5    3   17 2
     6    4   21 1
     7    4   39 1
     8    5   21 2
     9    6   22 2
    10    7   12 1
    11    7   29 1
    12    8   30 1
    13    8   45 1
    14    9   30 2
    15   10   15 1
    16   10   17 am
    17   10   18 1
    18   11   16 1
    19   11   22 am
    20   11   33 1
    21   12   24 2
    22   13   26 1
    23   13   28 2
    24   14   28 1
    25   14   43 1
    26   14   44 1
    27   15   16 1
    28   15   31 1
    29   16   17 1
    30   16   32 1
    31   18   20 2
    32   18   21 1
    33   19   20 1
    34   19   34 1
    35   19   35 1
    36   20   23 1
    37   22   24 1
    38   23   25 2
    39   23   36 1
    40   24   26 1
    41   25   37 1
    42   25   38 1
    43   26   27 2
    44   27   40 1
    45   29   30 1
    46   29   41 1
    47   29   42 1
