@<TRIPOS>MOLECULE
DB00392
   46    48     0     0     0
SMALL
USER_CHARGES

@<TRIPOS>ATOM
      1 S1          3.8366    0.6315   -1.1600 S.3       1 <0>        -0.0857
      2 N1         -2.4507   -0.1086    0.2322 N.3       1 <0>        -0.2987
      3 N2          1.2795   -0.0132    0.4861 N.pl3     1 <0>        -0.2968
      4 C1         -1.0852    0.2321   -0.1719 C.3       1 <0>         0.0236
      5 C2         -0.1051   -0.3154    0.8709 C.3       1 <0>         0.0327
      6 C3         -0.8279   -0.3423   -1.5650 C.3       1 <0>        -0.0480
      7 C4         -2.6250   -1.5596    0.2658 C.3       1 <0>        -0.0036
      8 C5         -3.4187    0.5030   -0.6766 C.3       1 <0>        -0.0036
      9 C6          2.1414   -1.1105    0.2340 C.ar      1 <0>         0.0479
     10 C7          1.6678    1.3502    0.4619 C.ar      1 <0>         0.0479
     11 C8          3.3433   -0.9404   -0.4812 C.ar      1 <0>         0.0341
     12 C9          2.8228    1.7642   -0.2305 C.ar      1 <0>         0.0341
     13 C10        -3.9950   -1.9316    0.7324 C.3       1 <0>        -0.0523
     14 C11        -3.2562    1.9877   -0.7244 C.3       1 <0>        -0.0523
     15 C12         1.8594   -2.4084    0.7136 C.ar      1 <0>        -0.0393
     16 C13         0.9442    2.3461    1.1540 C.ar      1 <0>        -0.0393
     17 C14         4.1984   -2.0306   -0.7216 C.ar      1 <0>        -0.0462
     18 C15         3.2081    3.1166   -0.2442 C.ar      1 <0>        -0.0462
     19 C16         2.7153   -3.4874    0.4763 C.ar      1 <0>        -0.0599
     20 C17         1.3344    3.6881    1.1413 C.ar      1 <0>        -0.0599
     21 C18         3.8844   -3.2990   -0.2448 C.ar      1 <0>        -0.0606
     22 C19         2.4658    4.0743    0.4389 C.ar      1 <0>        -0.0606
     23 H1         -0.9641    1.3143   -0.2201 H         1 <0>         0.0475
     24 H2         -0.3242    0.0628    1.8776 H         1 <0>         0.0483
     25 H3         -0.2543   -1.3795    0.9508 H         1 <0>         0.0483
     26 H4         -0.7218   -1.4316   -1.5805 H         1 <0>         0.0245
     27 H5         -1.5474   -0.0444   -2.3302 H         1 <0>         0.0245
     28 H6          0.1300    0.0431   -1.9381 H         1 <0>         0.0245
     29 H7         -2.4722   -2.0482   -0.7018 H         1 <0>         0.0424
     30 H8         -1.9710   -2.0449    0.9918 H         1 <0>         0.0424
     31 H9         -3.4468    0.0704   -1.6821 H         1 <0>         0.0424
     32 H10        -4.4257    0.3499   -0.2703 H         1 <0>         0.0424
     33 H11        -4.2760   -1.4014    1.6495 H         1 <0>         0.0242
     34 H12        -4.7654   -1.7540   -0.0248 H         1 <0>         0.0242
     35 H13        -4.0345   -3.0038    0.9597 H         1 <0>         0.0242
     36 H14        -3.1325    2.4266    0.2722 H         1 <0>         0.0242
     37 H15        -2.4216    2.3056   -1.3575 H         1 <0>         0.0242
     38 H16        -4.1539    2.4433   -1.1592 H         1 <0>         0.0242
     39 H17         1.0140   -2.6425    1.3517 H         1 <0>         0.0636
     40 H18         0.0629    2.1118    1.7442 H         1 <0>         0.0636
     41 H19         5.1215   -1.9021   -1.2834 H         1 <0>         0.0629
     42 H20         4.0937    3.4388   -0.7883 H         1 <0>         0.0629
     43 H21         2.4725   -4.4697    0.8713 H         1 <0>         0.0618
     44 H22         0.7530    4.4265    1.6858 H         1 <0>         0.0618
     45 H23         4.5537   -4.1333   -0.4304 H         1 <0>         0.0618
     46 H24         2.7726    5.1155    0.4250 H         1 <0>         0.0618
@<TRIPOS>BOND
     1    1   11 1
     2    1   12 1
     3    2    4 1
     4    2    7 1
     5    2    8 1
     6    3    5 1
     7    3    9 1
     8    3   10 1
     9    4    5 1
    10    4    6 1
    11    4   23 1
    12    5   24 1
    13    5   25 1
    14    6   26 1
    15    6   27 1
    16    6   28 1
    17    7   13 1
    18    7   29 1
    19    7   30 1
    20    8   14 1
    21    8   31 1
    22    8   32 1
    23    9   11 ar
    24    9   15 ar
    25   10   12 ar
    26   10   16 ar
    27   11   17 ar
    28   12   18 ar
    29   13   33 1
    30   13   34 1
    31   13   35 1
    32   14   36 1
    33   14   37 1
    34   14   38 1
    35   15   19 ar
    36   15   39 1
    37   16   20 ar
    38   16   40 1
    39   17   21 ar
    40   17   41 1
    41   18   22 ar
    42   18   42 1
    43   19   21 ar
    44   19   43 1
    45   20   22 ar
    46   20   44 1
    47   21   45 1
    48   22   46 1
