@<TRIPOS>MOLECULE
DB00564
   30    32     0     0     0
SMALL
USER_CHARGES

@<TRIPOS>ATOM
      1 O1          0.8563   -2.9245    1.3265 O.2       1 <0>        -0.2521
      2 N1          0.0052   -0.9080    0.4620 N.am      1 <0>        -0.2235
      3 N2         -1.3816   -2.5854    1.3951 N.am      1 <0>        -0.3126
      4 C1          1.2880   -0.3981    0.0565 C.ar      1 <0>         0.0499
      5 C2         -1.1256   -0.1613   -0.0167 C.ar      1 <0>         0.0499
      6 C3          1.7031    0.9179    0.3388 C.ar      1 <0>        -0.0032
      7 C4         -1.3021    1.2094    0.2457 C.ar      1 <0>        -0.0032
      8 C5          0.9211    1.8597    1.1451 C.2       1 <0>        -0.0522
      9 C6         -0.4088    1.9884    1.1059 C.2       1 <0>        -0.0522
     10 C7          2.1680   -1.2450   -0.6472 C.ar      1 <0>        -0.0393
     11 C8         -2.0851   -0.8272   -0.8073 C.ar      1 <0>        -0.0393
     12 C9          2.9815    1.3428   -0.0686 C.ar      1 <0>        -0.0528
     13 C10        -2.4423    1.8665   -0.2521 C.ar      1 <0>        -0.0528
     14 C11        -0.0993   -2.1963    1.0425 C.2       1 <0>         0.3084
     15 C12         3.4263   -0.8039   -1.0580 C.ar      1 <0>        -0.0600
     16 C13        -3.2017   -0.1583   -1.3078 C.ar      1 <0>        -0.0600
     17 C14         3.8341    0.4904   -0.7675 C.ar      1 <0>        -0.0611
     18 C15        -3.3822    1.1893   -1.0272 C.ar      1 <0>        -0.0611
     19 H1          1.4857    2.5237    1.7959 H         1 <0>         0.0624
     20 H2         -0.8748    2.7517    1.7246 H         1 <0>         0.0624
     21 H3          1.8724   -2.2576   -0.9129 H         1 <0>         0.0636
     22 H4         -1.9576   -1.8740   -1.0757 H         1 <0>         0.0636
     23 H5          3.3286    2.3491    0.1591 H         1 <0>         0.0624
     24 H6         -2.6092    2.9211   -0.0400 H         1 <0>         0.0624
     25 H7          4.0837   -1.4726   -1.6058 H         1 <0>         0.0618
     26 H8         -3.9247   -0.6897   -1.9195 H         1 <0>         0.0618
     27 H9          4.8145    0.8371   -1.0796 H         1 <0>         0.0618
     28 H10        -4.2521    1.7146   -1.4098 H         1 <0>         0.0618
     29 H11        -1.5377   -3.4927    1.8225 H         1 <0>         0.1465
     30 H12        -2.1839   -1.9673    1.3754 H         1 <0>         0.1465
@<TRIPOS>BOND
     1    1   14 2
     2    2    4 1
     3    2    5 1
     4    2   14 am
     5    3   14 am
     6    3   29 1
     7    3   30 1
     8    4    6 ar
     9    4   10 ar
    10    5    7 ar
    11    5   11 ar
    12    6    8 1
    13    6   12 ar
    14    7    9 1
    15    7   13 ar
    16    8    9 2
    17    8   19 1
    18    9   20 1
    19   10   15 ar
    20   10   21 1
    21   11   16 ar
    22   11   22 1
    23   12   17 ar
    24   12   23 1
    25   13   18 ar
    26   13   24 1
    27   15   17 ar
    28   15   25 1
    29   16   18 ar
    30   16   26 1
    31   17   27 1
    32   18   28 1
