@<TRIPOS>MOLECULE
DB00514
   45    48     0     0     0
SMALL
USER_CHARGES

@<TRIPOS>ATOM
      1 O1         -4.2651   -0.2152   -0.7517 O.3       1 <0>        -0.4951
      2 N1          2.4512    1.5837   -0.4832 N.3       1 <0>        -0.3018
      3 C1          0.6664   -0.7257   -0.7483 C.3       1 <0>         0.0015
      4 C2          1.8123   -0.6459    0.2995 C.3       1 <0>        -0.0154
      5 C3          2.0063    0.8273    0.7083 C.3       1 <0>         0.0177
      6 C4          1.1065    0.1176   -1.9764 C.3       1 <0>        -0.0302
      7 C5          0.5220   -2.2115   -1.1789 C.3       1 <0>        -0.0430
      8 C6          1.5920   -1.5922    1.4966 C.3       1 <0>        -0.0480
      9 C7         -0.6281   -0.1005   -0.1967 C.ar      1 <0>        -0.0342
     10 C8          0.7371    1.3599    1.4055 C.3       1 <0>        -0.0115
     11 C9          1.5114    1.5525   -1.6066 C.3       1 <0>        -0.0003
     12 C10         0.2920   -3.1566    0.0015 C.3       1 <0>        -0.0522
     13 C11         1.4050   -3.0352    1.0365 C.3       1 <0>        -0.0527
     14 C12        -0.5701    0.8957    0.8044 C.ar      1 <0>        -0.0419
     15 C13        -1.8892   -0.4432   -0.7181 C.ar      1 <0>        -0.0160
     16 C14         2.8735    2.9478   -0.1816 C.3       1 <0>        -0.0125
     17 C15        -1.7561    1.4742    1.2887 C.ar      1 <0>        -0.0548
     18 C16        -3.0591    0.1452   -0.2330 C.ar      1 <0>         0.1204
     19 C17        -2.9935    1.0989    0.7746 C.ar      1 <0>        -0.0197
     20 C18        -5.4205    0.4263   -0.2144 C.3       1 <0>         0.0788
     21 H1          2.7449   -0.9830   -0.1812 H         1 <0>         0.0324
     22 H2          2.8285    0.8679    1.4357 H         1 <0>         0.0469
     23 H3          0.3107    0.1521   -2.7316 H         1 <0>         0.0286
     24 H4          1.9676   -0.3651   -2.4593 H         1 <0>         0.0286
     25 H5          1.4448   -2.5287   -1.6852 H         1 <0>         0.0274
     26 H6         -0.2720   -2.3484   -1.9203 H         1 <0>         0.0274
     27 H7          0.7174   -1.3003    2.0876 H         1 <0>         0.0269
     28 H8          2.4553   -1.5384    2.1706 H         1 <0>         0.0269
     29 H9          0.7485    2.4544    1.4501 H         1 <0>         0.0328
     30 H10         0.7526    1.0200    2.4501 H         1 <0>         0.0328
     31 H11         1.9821    2.0029   -2.4898 H         1 <0>         0.0427
     32 H12         0.6201    2.1556   -1.3955 H         1 <0>         0.0427
     33 H13         0.2473   -4.1894   -0.3629 H         1 <0>         0.0266
     34 H14        -0.6752   -2.9472    0.4726 H         1 <0>         0.0266
     35 H15         1.1788   -3.6719    1.8994 H         1 <0>         0.0265
     36 H16         2.3443   -3.4047    0.6069 H         1 <0>         0.0265
     37 H17        -1.9815   -1.1694   -1.5204 H         1 <0>         0.0657
     38 H18         2.0372    3.6031    0.0814 H         1 <0>         0.0391
     39 H19         3.3816    3.3862   -1.0479 H         1 <0>         0.0391
     40 H20         3.5973    2.9604    0.6407 H         1 <0>         0.0391
     41 H21        -1.7145    2.2286    2.0712 H         1 <0>         0.0622
     42 H22        -3.8598    1.5936    1.1996 H         1 <0>         0.0654
     43 H23        -5.4064    1.5052   -0.4029 H         1 <0>         0.0660
     44 H24        -5.5539    0.1920    0.8471 H         1 <0>         0.0660
     45 H25        -6.2899    0.0213   -0.7426 H         1 <0>         0.0660
@<TRIPOS>BOND
     1    1   18 1
     2    1   20 1
     3    2    5 1
     4    2   11 1
     5    2   16 1
     6    3    4 1
     7    3    6 1
     8    3    7 1
     9    3    9 1
    10    4    5 1
    11    4    8 1
    12    4   21 1
    13    5   10 1
    14    5   22 1
    15    6   11 1
    16    6   23 1
    17    6   24 1
    18    7   12 1
    19    7   25 1
    20    7   26 1
    21    8   13 1
    22    8   27 1
    23    8   28 1
    24    9   14 ar
    25    9   15 ar
    26   10   14 1
    27   10   29 1
    28   10   30 1
    29   11   31 1
    30   11   32 1
    31   12   13 1
    32   12   33 1
    33   12   34 1
    34   13   35 1
    35   13   36 1
    36   14   17 ar
    37   15   18 ar
    38   15   37 1
    39   16   38 1
    40   16   39 1
    41   16   40 1
    42   17   19 ar
    43   17   41 1
    44   18   19 ar
    45   19   42 1
    46   20   43 1
    47   20   44 1
    48   20   45 1
