@<TRIPOS>MOLECULE
DB00441
   29    30     0     0     0
SMALL
USER_CHARGES

@<TRIPOS>ATOM
      1 F1          0.2915   -2.2485   -1.2776 F         1 <0>        -0.1978
      2 F2          2.0083   -2.6149    0.0143 F         1 <0>        -0.1978
      3 O1          1.1853    0.0717    1.2017 O.3       1 <0>        -0.3422
      4 O2          2.9579   -0.8670   -1.7712 O.3       1 <0>        -0.3830
      5 O3          2.9083    2.3101    1.2887 O.3       1 <0>        -0.3924
      6 O4         -1.9033   -2.6230    1.2144 O.2       1 <0>        -0.2444
      7 N1         -0.9197   -0.6564    0.5139 N.am      1 <0>        -0.2670
      8 N2         -3.3046   -1.0133    0.4418 N.2       1 <0>        -0.1783
      9 N3         -4.7349    0.6394   -0.3527 N.pl3     1 <0>        -0.3430
     10 C1          1.8473   -0.4882   -0.9860 C.3       1 <0>         0.1508
     11 C2          1.1274   -1.6725   -0.3968 C.3       1 <0>         0.3207
     12 C3          2.2723    0.2429    0.2740 C.3       1 <0>         0.1159
     13 C4          0.4201   -1.0828    0.8066 C.3       1 <0>         0.2055
     14 C5          2.5300    1.7224    0.0544 C.3       1 <0>         0.0731
     15 C6         -1.1142    0.6103   -0.0141 C.2       1 <0>         0.0153
     16 C7         -2.0416   -1.4907    0.7476 C.2       1 <0>         0.3523
     17 C8         -2.3201    1.0874   -0.3161 C.2       1 <0>        -0.0056
     18 C9         -3.4712    0.1842   -0.0555 C.2       1 <0>         0.1230
     19 H1          1.1768    0.1064   -1.6139 H         1 <0>         0.0682
     20 H2          3.1597   -0.2158    0.7294 H         1 <0>         0.0648
     21 H3          0.4127   -1.7894    1.6432 H         1 <0>         0.0902
     22 H4          1.6503    2.2576   -0.3112 H         1 <0>         0.0584
     23 H5          3.3455    1.8745   -0.6593 H         1 <0>         0.0584
     24 H6          3.5236   -1.4482   -1.2348 H         1 <0>         0.2101
     25 H7         -0.2611    1.2434   -0.1957 H         1 <0>         0.0812
     26 H8          2.1795    2.1662    1.9165 H         1 <0>         0.2095
     27 H9         -2.4799    2.0741   -0.7298 H         1 <0>         0.0666
     28 H10        -4.8966    1.5632   -0.7401 H         1 <0>         0.1437
     29 H11        -5.5494    0.0566   -0.1917 H         1 <0>         0.1437
@<TRIPOS>BOND
     1    1   11 1
     2    2   11 1
     3    3   12 1
     4    3   13 1
     5    4   10 1
     6    4   24 1
     7    5   14 1
     8    5   26 1
     9    6   16 2
    10    7   13 1
    11    7   15 1
    12    7   16 am
    13    8   16 1
    14    8   18 2
    15    9   18 1
    16    9   28 1
    17    9   29 1
    18   10   11 1
    19   10   12 1
    20   10   19 1
    21   11   13 1
    22   12   14 1
    23   12   20 1
    24   13   21 1
    25   14   22 1
    26   14   23 1
    27   15   17 2
    28   15   25 1
    29   17   18 1
    30   17   27 1
