@<TRIPOS>MOLECULE
DB00721
   37    37     0     0     0
SMALL
USER_CHARGES

@<TRIPOS>ATOM
      1 O1         -0.6238    0.2736   -0.2360 O.3       1 <0>        -0.4599
      2 O2         -1.3879    2.2007   -1.2367 O.2       1 <0>        -0.2450
      3 N1          3.0465   -0.0587   -0.1684 N.3       1 <0>        -0.2996
      4 N2         -6.7466   -0.8472    0.5045 N.pl3     1 <0>        -0.3580
      5 C1          1.6474   -0.4109    0.0714 C.3       1 <0>         0.0332
      6 C2          3.9307   -1.1156    0.3214 C.3       1 <0>        -0.0038
      7 C3          3.3698    1.2157    0.4719 C.3       1 <0>        -0.0038
      8 C4          0.7220    0.6644   -0.4749 C.3       1 <0>         0.1054
      9 C5          3.6090   -2.4481   -0.3338 C.3       1 <0>        -0.0524
     10 C6          4.8031    1.6279    0.1821 C.3       1 <0>        -0.0524
     11 C7         -1.5834    1.1369   -0.6695 C.2       1 <0>         0.3392
     12 C8         -2.9389    0.6160   -0.3599 C.ar      1 <0>         0.0591
     13 C9         -3.9605    1.5133   -0.1250 C.ar      1 <0>        -0.0460
     14 C10        -3.1353   -0.7493   -0.3179 C.ar      1 <0>        -0.0460
     15 C11        -5.4585   -0.3520    0.2130 C.ar      1 <0>         0.0246
     16 C12        -5.2343    1.0238    0.1648 C.ar      1 <0>        -0.0403
     17 C13        -4.4090   -1.2385   -0.0283 C.ar      1 <0>        -0.0403
     18 H1          1.4423   -0.5724    1.1384 H         1 <0>         0.0460
     19 H2          1.3650   -1.3373   -0.4406 H         1 <0>         0.0460
     20 H3          4.9714   -0.9003    0.0579 H         1 <0>         0.0424
     21 H4          3.8800   -1.2206    1.4125 H         1 <0>         0.0424
     22 H5          2.7698    2.0316    0.0608 H         1 <0>         0.0424
     23 H6          3.2004    1.1888    1.5556 H         1 <0>         0.0424
     24 H7          0.8788    0.7972   -1.5525 H         1 <0>         0.0710
     25 H8          0.8532    1.6228    0.0338 H         1 <0>         0.0710
     26 H9          2.7024   -2.9073    0.0723 H         1 <0>         0.0242
     27 H10         3.5083   -2.3548   -1.4206 H         1 <0>         0.0242
     28 H11         4.4248   -3.1549   -0.1433 H         1 <0>         0.0242
     29 H12         5.5303    1.0444    0.7552 H         1 <0>         0.0242
     30 H13         5.0419    1.5469   -0.8839 H         1 <0>         0.0242
     31 H14         4.9496    2.6753    0.4699 H         1 <0>         0.0242
     32 H15        -3.7975    2.5865   -0.1566 H         1 <0>         0.0626
     33 H16        -2.3385   -1.4600   -0.5154 H         1 <0>         0.0626
     34 H17        -6.0438    1.7247    0.3516 H         1 <0>         0.0636
     35 H18        -4.5720   -2.3129    0.0031 H         1 <0>         0.0636
     36 H19        -6.9092   -1.8447    0.5415 H         1 <0>         0.1423
     37 H20        -7.5076   -0.2051    0.6816 H         1 <0>         0.1423
@<TRIPOS>BOND
     1    1    8 1
     2    1   11 1
     3    2   11 2
     4    3    5 1
     5    3    6 1
     6    3    7 1
     7    4   15 1
     8    4   36 1
     9    4   37 1
    10    5    8 1
    11    5   18 1
    12    5   19 1
    13    6    9 1
    14    6   20 1
    15    6   21 1
    16    7   10 1
    17    7   22 1
    18    7   23 1
    19    8   24 1
    20    8   25 1
    21    9   26 1
    22    9   27 1
    23    9   28 1
    24   10   29 1
    25   10   30 1
    26   10   31 1
    27   11   12 1
    28   12   13 ar
    29   12   14 ar
    30   13   16 ar
    31   13   32 1
    32   14   17 ar
    33   14   33 1
    34   15   16 ar
    35   15   17 ar
    36   16   34 1
    37   17   35 1
