@<TRIPOS>MOLECULE
DB00961
   40    41     0     0     0
SMALL
USER_CHARGES

@<TRIPOS>ATOM
      1 O1         -0.0471    0.2837    1.7266 O.2       1 <0>        -0.2737
      2 N1         -2.4391    0.8852    0.6512 N.3       1 <0>        -0.2946
      3 N2          0.8462   -0.0794   -0.4198 N.am      1 <0>        -0.2837
      4 C1         -1.5153    0.0350   -0.1224 C.3       1 <0>         0.0873
      5 C2         -1.9523   -1.4363   -0.1220 C.3       1 <0>        -0.0288
      6 C3         -3.3852   -1.5972   -0.6104 C.3       1 <0>        -0.0500
      7 C4         -4.3113   -0.6873    0.1834 C.3       1 <0>        -0.0401
      8 C5         -3.8192    0.7587    0.1492 C.3       1 <0>        -0.0007
      9 C6         -0.1618    0.0958    0.5198 C.2       1 <0>         0.2344
     10 C7         -2.0464    2.2997    0.6131 C.3       1 <0>        -0.0120
     11 C8          2.2432   -0.0845   -0.1933 C.ar      1 <0>         0.0393
     12 C9          2.9503    1.1064   -0.2688 C.ar      1 <0>        -0.0290
     13 C10         2.8817   -1.2804    0.0996 C.ar      1 <0>        -0.0290
     14 C11         4.3273    1.1012   -0.0467 C.ar      1 <0>        -0.0571
     15 C12         4.2588   -1.2854    0.3218 C.ar      1 <0>        -0.0571
     16 C13         2.2779    2.4034   -0.5841 C.3       1 <0>        -0.0379
     17 C14         2.1352   -2.5722    0.1850 C.3       1 <0>        -0.0379
     18 C15         4.9815   -0.0946    0.2487 C.ar      1 <0>        -0.0611
     19 H1         -1.4622    0.3972   -1.1585 H         1 <0>         0.0558
     20 H2         -1.8668   -1.8579    0.8891 H         1 <0>         0.0285
     21 H3         -1.2847   -2.0310   -0.7578 H         1 <0>         0.0285
     22 H4         -3.7031   -2.6405   -0.5078 H         1 <0>         0.0266
     23 H5         -3.4422   -1.3446   -1.6762 H         1 <0>         0.0266
     24 H6         -5.3255   -0.7428   -0.2280 H         1 <0>         0.0278
     25 H7         -4.3676   -1.0341    1.2231 H         1 <0>         0.0278
     26 H8         -3.8950    1.1442   -0.8764 H         1 <0>         0.0427
     27 H9         -4.4940    1.3592    0.7720 H         1 <0>         0.0427
     28 H10        -2.0180    2.6886   -0.4116 H         1 <0>         0.0391
     29 H11        -1.0686    2.4755    1.0711 H         1 <0>         0.0391
     30 H12        -2.7563    2.9067    1.1873 H         1 <0>         0.0391
     31 H13         0.5771   -0.3823   -1.3534 H         1 <0>         0.1549
     32 H14         4.9057    2.0198   -0.0988 H         1 <0>         0.0621
     33 H15         4.7848   -2.2078    0.5540 H         1 <0>         0.0621
     34 H16         1.5959    2.6853    0.2247 H         1 <0>         0.0278
     35 H17         3.0002    3.2181   -0.7054 H         1 <0>         0.0278
     36 H18         1.7166    2.3297   -1.5216 H         1 <0>         0.0278
     37 H19         1.4252   -2.5486    1.0182 H         1 <0>         0.0278
     38 H20         1.5932   -2.7663   -0.7467 H         1 <0>         0.0278
     39 H21         2.8070   -3.4216    0.3497 H         1 <0>         0.0278
     40 H22         6.0538   -0.0985    0.4221 H         1 <0>         0.0618
@<TRIPOS>BOND
     1    1    9 2
     2    2    4 1
     3    2    8 1
     4    2   10 1
     5    3    9 am
     6    3   11 1
     7    3   31 1
     8    4    5 1
     9    4    9 1
    10    4   19 1
    11    5    6 1
    12    5   20 1
    13    5   21 1
    14    6    7 1
    15    6   22 1
    16    6   23 1
    17    7    8 1
    18    7   24 1
    19    7   25 1
    20    8   26 1
    21    8   27 1
    22   10   28 1
    23   10   29 1
    24   10   30 1
    25   11   12 ar
    26   11   13 ar
    27   12   14 ar
    28   12   16 1
    29   13   15 ar
    30   13   17 1
    31   14   18 ar
    32   14   32 1
    33   15   18 ar
    34   15   33 1
    35   16   34 1
    36   16   35 1
    37   16   36 1
    38   17   37 1
    39   17   38 1
    40   17   39 1
    41   18   40 1
