@<TRIPOS>MOLECULE
DB00219
   59    60     0     0     0
SMALL
USER_CHARGES

@<TRIPOS>ATOM
      1 O1          2.8182    0.0013    2.1042 O.3       1 <0>        -0.3730
      2 O2         -0.1752   -0.7893    0.2885 O.3       1 <0>        -0.4570
      3 O3          0.1781   -0.0629    2.4470 O.2       1 <0>        -0.2472
      4 N1         -3.7762   -0.0058   -0.1037 N.4       1 <0>         0.2432
      5 C1          2.2876    0.7928   -0.0725 C.3       1 <0>         0.0026
      6 C2          1.7323    2.1149    0.4746 C.3       1 <0>        -0.0467
      7 C3          3.7753    0.9285   -0.4232 C.3       1 <0>        -0.0467
      8 C4          2.0706   -0.3393    0.9299 C.3       1 <0>         0.1901
      9 C5          1.9849    3.2734   -0.4873 C.3       1 <0>        -0.0527
     10 C6          4.0246    2.0893   -1.3835 C.3       1 <0>        -0.0527
     11 C7          3.4636    3.3997   -0.8404 C.3       1 <0>        -0.0530
     12 C8          2.5402   -1.7267    0.5018 C.ar      1 <0>        -0.0051
     13 C9         -2.3231    0.0515   -0.4025 C.3       1 <0>         0.0047
     14 C10         0.5951   -0.3683    1.3363 C.2       1 <0>         0.3442
     15 C11        -4.3173   -1.4279   -0.3040 C.3       1 <0>        -0.0331
     16 C12        -4.0507    0.4096    1.3479 C.3       1 <0>        -0.0331
     17 C13        -1.5803   -0.8676    0.5472 C.3       1 <0>         0.1322
     18 C14        -4.5596    0.9376   -1.0266 C.3       1 <0>        -0.0412
     19 C15         2.4361   -2.1172   -0.8334 C.ar      1 <0>        -0.0553
     20 C16         3.0741   -2.6045    1.4453 C.ar      1 <0>        -0.0553
     21 C17        -4.1292   -1.8338   -1.7493 C.3       1 <0>        -0.0244
     22 C18        -3.5964    1.8385    1.5517 C.3       1 <0>        -0.0244
     23 C19         2.8656   -3.3852   -1.2249 C.ar      1 <0>        -0.0614
     24 C20         3.5035   -3.8725    1.0537 C.ar      1 <0>        -0.0614
     25 C21         3.3992   -4.2628   -0.2814 C.ar      1 <0>        -0.0617
     26 H1          1.7376    0.5887   -1.0009 H         1 <0>         0.0337
     27 H2          2.1946    2.3765    1.4331 H         1 <0>         0.0269
     28 H3          0.6515    2.0557    0.6433 H         1 <0>         0.0269
     29 H4          4.1650    0.0173   -0.8876 H         1 <0>         0.0269
     30 H5          4.3715    1.0989    0.4822 H         1 <0>         0.0269
     31 H6          1.4023    3.1201   -1.4042 H         1 <0>         0.0265
     32 H7          1.6325    4.2093   -0.0390 H         1 <0>         0.0265
     33 H8          5.1008    2.1958   -1.5619 H         1 <0>         0.0265
     34 H9          3.5610    1.8669   -2.3525 H         1 <0>         0.0265
     35 H10         4.0279    3.6959    0.0524 H         1 <0>         0.0265
     36 H11         3.5992    4.1946   -1.5822 H         1 <0>         0.0265
     37 H12        -1.9617    1.0817   -0.3204 H         1 <0>         0.0849
     38 H13        -2.1327   -0.2093   -1.4479 H         1 <0>         0.0849
     39 H14        -3.8410   -2.1141    0.4006 H         1 <0>         0.0812
     40 H15        -5.3869   -1.4042   -0.0614 H         1 <0>         0.0812
     41 H16        -5.1372    0.3525    1.4932 H         1 <0>         0.0812
     42 H17        -3.6092   -0.2999    2.0499 H         1 <0>         0.0812
     43 H18        -1.8239   -1.9161    0.3589 H         1 <0>         0.0752
     44 H19        -1.7825   -0.6786    1.5992 H         1 <0>         0.0752
     45 H20        -5.6241    0.8719   -0.7850 H         1 <0>         0.0778
     46 H21        -4.3732    0.6726   -2.0691 H         1 <0>         0.0778
     47 H22        -4.1896    1.9581   -0.9130 H         1 <0>         0.0778
     48 H23         2.3599    0.7120    2.5819 H         1 <0>         0.2113
     49 H24         2.0111   -1.4678   -1.5917 H         1 <0>         0.0621
     50 H25         3.1542   -2.3395    2.4957 H         1 <0>         0.0621
     51 H26        -4.4909   -2.8649   -1.8543 H         1 <0>         0.0281
     52 H27        -3.0894   -1.8623   -2.0802 H         1 <0>         0.0281
     53 H28        -4.7267   -1.2568   -2.4581 H         1 <0>         0.0281
     54 H29        -2.5280    1.9981    1.3949 H         1 <0>         0.0281
     55 H30        -4.1676    2.5769    0.9852 H         1 <0>         0.0281
     56 H31        -3.7736    2.0965    2.6037 H         1 <0>         0.0281
     57 H32         2.7807   -3.6910   -2.2635 H         1 <0>         0.0618
     58 H33         3.9153   -4.5579    1.7888 H         1 <0>         0.0618
     59 H34         3.7319   -5.2508   -0.5859 H         1 <0>         0.0618
@<TRIPOS>BOND
     1    1    8 1
     2    1   48 1
     3    2   14 1
     4    2   17 1
     5    3   14 2
     6    4   13 1
     7    4   15 1
     8    4   16 1
     9    4   18 1
    10    5    6 1
    11    5    7 1
    12    5    8 1
    13    5   26 1
    14    6    9 1
    15    6   27 1
    16    6   28 1
    17    7   10 1
    18    7   29 1
    19    7   30 1
    20    8   12 1
    21    8   14 1
    22    9   11 1
    23    9   31 1
    24    9   32 1
    25   10   11 1
    26   10   33 1
    27   10   34 1
    28   11   35 1
    29   11   36 1
    30   12   19 ar
    31   12   20 ar
    32   13   17 1
    33   13   37 1
    34   13   38 1
    35   15   21 1
    36   15   39 1
    37   15   40 1
    38   16   22 1
    39   16   41 1
    40   16   42 1
    41   17   43 1
    42   17   44 1
    43   18   45 1
    44   18   46 1
    45   18   47 1
    46   19   23 ar
    47   19   49 1
    48   20   24 ar
    49   20   50 1
    50   21   51 1
    51   21   52 1
    52   21   53 1
    53   22   54 1
    54   22   55 1
    55   22   56 1
    56   23   25 ar
    57   23   57 1
    58   24   25 ar
    59   24   58 1
    60   25   59 1
