@<TRIPOS>MOLECULE
DB00303
   58    61     0     0     0
SMALL
USER_CHARGES

@<TRIPOS>ATOM
      1 S1          1.2341   -0.3956   -2.1159 S.3       1 <0>        -0.1224
      2 O1          5.8451   -2.8346    0.0183 O.2       1 <0>        -0.2748
      3 O2          6.3099   -0.3571    2.6422 O.3       1 <0>        -0.3912
      4 O3          2.7133   -3.6512    0.5869 O.3       1 <0>        -0.4762
      5 O4          2.0357   -3.4330   -1.5865 O.2       1 <0>        -0.2437
      6 O5         -3.0522   -0.8267   -1.2722 O.2       1 <0>        -0.2738
      7 O6        -10.0897    0.0631    1.5387 O.3       1 <0>        -0.4771
      8 O7         -8.9427    1.9960    1.8770 O.2       1 <0>        -0.2451
      9 N1          4.0678   -1.3317    0.3983 N.am      1 <0>        -0.2601
     10 N2         -1.3820    1.1184    0.4775 N.3       1 <0>        -0.3046
     11 N3         -4.3709    0.7909   -0.1853 N.am      1 <0>        -0.2842
     12 C1          4.3578    0.1167    0.4172 C.3       1 <0>         0.0519
     13 C2          5.8588   -0.2931    0.2872 C.3       1 <0>         0.0811
     14 C3          3.4238    0.6965   -0.6661 C.3       1 <0>         0.0091
     15 C4          5.3519   -1.7504    0.2329 C.2       1 <0>         0.2276
     16 C5          2.5678   -0.5018   -1.0381 C.2       1 <0>         0.0188
     17 C6          3.0129   -1.6055   -0.4222 C.2       1 <0>         0.1310
     18 C7          6.8712   -0.0241    1.3717 C.3       1 <0>         0.0653
     19 C8          4.1476    1.3371   -1.8388 C.3       1 <0>        -0.0561
     20 C9          0.1927    0.7846   -1.2186 C.3       1 <0>         0.0240
     21 C10         7.2923    1.4418    1.3856 C.3       1 <0>        -0.0382
     22 C11        -1.1307    1.0743   -1.9200 C.3       1 <0>        -0.0156
     23 C12        -0.2330    0.2640    0.1418 C.3       1 <0>         0.0088
     24 C13         2.5302   -2.9748   -0.5685 C.2       1 <0>         0.3521
     25 C14        -2.1224    1.2988   -0.7797 C.3       1 <0>         0.0862
     26 C15        -3.2231    0.2849   -0.7822 C.2       1 <0>         0.2343
     27 C16        -5.6095    0.1310   -0.0035 C.ar      1 <0>         0.0342
     28 C17        -6.6505    0.8015    0.6169 C.ar      1 <0>        -0.0265
     29 C18        -5.7546   -1.1716   -0.4511 C.ar      1 <0>        -0.0404
     30 C19        -7.8714    0.1506    0.7950 C.ar      1 <0>         0.0606
     31 C20        -6.9753   -1.8225   -0.2729 C.ar      1 <0>        -0.0592
     32 C21        -8.0338   -1.1614    0.3502 C.ar      1 <0>        -0.0477
     33 C22        -8.9749    0.8387    1.4457 C.2       1 <0>         0.3369
     34 H1          4.1138    0.5432    1.4008 H         1 <0>         0.0519
     35 H2          6.2886   -0.0137   -0.6857 H         1 <0>         0.0438
     36 H3          2.7968    1.4603   -0.1900 H         1 <0>         0.0370
     37 H4          7.7578   -0.6512    1.2234 H         1 <0>         0.0598
     38 H5          4.7255    0.6008   -2.4083 H         1 <0>         0.0236
     39 H6          4.8446    2.1048   -1.4863 H         1 <0>         0.0236
     40 H7          3.4431    1.8144   -2.5280 H         1 <0>         0.0236
     41 H8          0.7340    1.7326   -1.1088 H         1 <0>         0.0428
     42 H9          6.4339    2.0926    1.5860 H         1 <0>         0.0255
     43 H10         8.0235    1.6257    2.1797 H         1 <0>         0.0255
     44 H11         7.7309    1.7377    0.4275 H         1 <0>         0.0255
     45 H12        -1.0311    1.9839   -2.5253 H         1 <0>         0.0296
     46 H13        -1.4305    0.2726   -2.6035 H         1 <0>         0.0296
     47 H14         0.5491    0.3721    0.8994 H         1 <0>         0.0435
     48 H15        -0.5488   -0.7863    0.1124 H         1 <0>         0.0435
     49 H16        -2.5327    2.3132   -0.8315 H         1 <0>         0.0557
     50 H17        -1.9527    0.7048    1.2121 H         1 <0>         0.1227
     51 H18         6.9894   -0.1859    3.3162 H         1 <0>         0.2098
     52 H19         2.3991   -4.5784    0.5244 H         1 <0>         0.2954
     53 H20        -4.3354    1.7417    0.1759 H         1 <0>         0.1549
     54 H21        -6.5145    1.8240    0.9605 H         1 <0>         0.0644
     55 H22        -4.9842   -1.7490   -0.9406 H         1 <0>         0.0636
     56 H23        -7.1023   -2.8444   -0.6189 H         1 <0>         0.0618
     57 H24        -8.9665   -1.7058    0.4685 H         1 <0>         0.0626
     58 H25       -10.8280    0.5365    1.9784 H         1 <0>         0.2954
@<TRIPOS>BOND
     1    1   16 1
     2    1   20 1
     3    2   15 2
     4    3   18 1
     5    3   51 1
     6    4   24 1
     7    4   52 1
     8    5   24 2
     9    6   26 2
    10    7   33 1
    11    7   58 1
    12    8   33 2
    13    9   12 1
    14    9   15 am
    15    9   17 1
    16   10   23 1
    17   10   25 1
    18   10   50 1
    19   11   26 am
    20   11   27 1
    21   11   53 1
    22   12   13 1
    23   12   14 1
    24   12   34 1
    25   13   15 1
    26   13   18 1
    27   13   35 1
    28   14   16 1
    29   14   19 1
    30   14   36 1
    31   16   17 2
    32   17   24 1
    33   18   21 1
    34   18   37 1
    35   19   38 1
    36   19   39 1
    37   19   40 1
    38   20   22 1
    39   20   23 1
    40   20   41 1
    41   21   42 1
    42   21   43 1
    43   21   44 1
    44   22   25 1
    45   22   45 1
    46   22   46 1
    47   23   47 1
    48   23   48 1
    49   25   26 1
    50   25   49 1
    51   27   28 ar
    52   27   29 ar
    53   28   30 ar
    54   28   54 1
    55   29   31 ar
    56   29   55 1
    57   30   32 ar
    58   30   33 1
    59   31   32 ar
    60   31   56 1
    61   32   57 1
