@<TRIPOS>MOLECULE
DB00500
   34    35     0     0     0
SMALL
USER_CHARGES

@<TRIPOS>ATOM
      1 O1         -0.2997   -2.5240   -0.0263 O.2       1 <0>        -0.2851
      2 O2          5.9304    1.1551   -0.9445 O.3       1 <0>        -0.4804
      3 O3          3.7509    1.5511   -1.4455 O.2       1 <0>        -0.2506
      4 N1          1.9944   -0.7366    0.1994 N.pl3     1 <0>        -0.3438
      5 C1          2.8112    0.2186    0.7459 C.cat     1 <0>         0.0297
      6 C2          0.7349   -0.4762    0.5896 C.2       1 <0>         0.0897
      7 C3          2.0240    1.0753    1.4832 C.2       1 <0>        -0.0397
      8 C4          0.6869    0.6188    1.3762 C.2       1 <0>        -0.0328
      9 C5          4.2710    0.2343    0.5182 C.3       1 <0>         0.0851
     10 C6         -0.4206   -1.3059    0.1865 C.2       1 <0>         0.2093
     11 C7          2.4326   -1.8245   -0.6501 C.3       1 <0>         0.0122
     12 C8         -1.7473   -0.7277    0.0419 C.ar      1 <0>         0.0238
     13 C9         -1.8896    0.6070   -0.3375 C.ar      1 <0>        -0.0506
     14 C10        -2.8776   -1.5081    0.2840 C.ar      1 <0>        -0.0506
     15 C11        -4.2927    0.3809   -0.2323 C.ar      1 <0>        -0.0504
     16 C12        -3.1623    1.1614   -0.4744 C.ar      1 <0>        -0.0582
     17 C13        -4.1503   -0.9540    0.1468 C.ar      1 <0>        -0.0582
     18 C14         4.5976    1.0580   -0.7108 C.2       1 <0>         0.3105
     19 C15        -5.6535    0.9729   -0.3809 C.3       1 <0>        -0.0397
     20 H1          2.3726    1.9329    2.0417 H         1 <0>         0.0636
     21 H2         -0.1739    1.0616    1.8573 H         1 <0>         0.0640
     22 H3          4.6925   -0.7690    0.4098 H         1 <0>         0.0441
     23 H4          4.7656    0.7094    1.3741 H         1 <0>         0.0441
     24 H5          1.6915   -1.9908   -1.4358 H         1 <0>         0.0456
     25 H6          3.3738   -1.5752   -1.1423 H         1 <0>         0.0456
     26 H7          2.5514   -2.7159   -0.0295 H         1 <0>         0.0456
     27 H8         -1.0382    1.2358   -0.5804 H         1 <0>         0.0625
     28 H9         -2.7902   -2.5486    0.5862 H         1 <0>         0.0625
     29 H10        -3.2608    2.1991   -0.7822 H         1 <0>         0.0620
     30 H11        -5.0235   -1.5724    0.3374 H         1 <0>         0.0620
     31 H12        -6.3659    0.5027    0.3055 H         1 <0>         0.0278
     32 H13        -5.6459    2.0436   -0.1501 H         1 <0>         0.0278
     33 H14        -6.0122    0.8375   -1.4059 H         1 <0>         0.0278
     34 H15         6.1229    1.6728   -1.7553 H         1 <0>         0.2951
@<TRIPOS>BOND
     1    1   10 2
     2    2   18 1
     3    2   34 1
     4    3   18 2
     5    4    5 1
     6    4    6 2
     7    4   11 1
     8    5    7 1
     9    5    9 1
    10    6    8 1
    11    6   10 1
    12    7    8 2
    13    7   20 1
    14    8   21 1
    15    9   18 1
    16    9   22 1
    17    9   23 1
    18   10   12 1
    19   11   24 1
    20   11   25 1
    21   11   26 1
    22   12   13 ar
    23   12   14 ar
    24   13   16 ar
    25   13   27 1
    26   14   17 ar
    27   14   28 1
    28   15   16 ar
    29   15   17 ar
    30   15   19 1
    31   16   29 1
    32   17   30 1
    33   19   31 1
    34   19   32 1
    35   19   33 1
