@<TRIPOS>MOLECULE
DB00740
   20    21     0     0     0
SMALL
USER_CHARGES

@<TRIPOS>ATOM
      1 S1         -1.9674    1.6407    0.2312 S.3       1 <0>        -0.0525
      2 F1          3.0388    0.6831   -1.5229 F         1 <0>        -0.1328
      3 F2          4.8840    0.3075   -0.4136 F         1 <0>        -0.1328
      4 F3          3.6309    2.0093    0.1428 F         1 <0>        -0.1328
      5 O1          2.9227   -0.1125    0.6177 O.3       1 <0>        -0.4057
      6 N1         -2.5266   -0.8499   -0.1373 N.2       1 <0>        -0.2251
      7 N2         -4.3796    0.6134   -0.1865 N.pl3     1 <0>        -0.3375
      8 C1         -0.6568    0.5205    0.2560 C.ar      1 <0>         0.0442
      9 C2         -1.1532   -0.7686    0.0405 C.ar      1 <0>         0.0805
     10 C3          0.7120    0.7650    0.4527 C.ar      1 <0>        -0.0037
     11 C4          1.5890   -0.3225    0.4292 C.ar      1 <0>         0.1312
     12 C5         -0.2453   -1.8498    0.0220 C.ar      1 <0>        -0.0317
     13 C6          1.1188   -1.6138    0.2170 C.ar      1 <0>        -0.0175
     14 C7         -3.0523    0.3501   -0.0563 C.2       1 <0>         0.1566
     15 C8          3.6056    0.7339   -0.2987 C.3       1 <0>         0.5752
     16 H1          1.0732    1.7744    0.6253 H         1 <0>         0.0666
     17 H2         -0.6018   -2.8627   -0.1433 H         1 <0>         0.0640
     18 H3          1.8110   -2.4518    0.2006 H         1 <0>         0.0655
     19 H4         -4.7467    1.5568   -0.1181 H         1 <0>         0.1442
     20 H5         -5.0562   -0.1231   -0.3585 H         1 <0>         0.1442
@<TRIPOS>BOND
     1    1    8 1
     2    1   14 1
     3    2   15 1
     4    3   15 1
     5    4   15 1
     6    5   11 1
     7    5   15 1
     8    6    9 1
     9    6   14 2
    10    7   14 1
    11    7   19 1
    12    7   20 1
    13    8    9 ar
    14    8   10 ar
    15    9   12 ar
    16   10   11 ar
    17   10   16 1
    18   11   13 ar
    19   12   13 ar
    20   12   17 1
    21   13   18 1
