@<TRIPOS>MOLECULE
DB00485
   47    50     0     0     0
SMALL
USER_CHARGES

@<TRIPOS>ATOM
      1 Cl1        -1.6124    1.5165   -2.7992 Cl        1 <0>        -0.0828
      2 Cl2        -2.8712    2.0303    2.5116 Cl        1 <0>        -0.0828
      3 S1          0.9077   -1.1196   -1.1587 S.3       1 <0>        -0.1273
      4 O1          0.9828   -0.1850    3.1464 O.2       1 <0>        -0.2734
      5 O2          5.0393    0.2884    0.6990 O.3       1 <0>        -0.4793
      6 O3          4.4036   -1.4710    2.0014 O.2       1 <0>        -0.2489
      7 O4         -2.2980   -2.5154   -0.2665 O.2       1 <0>        -0.2700
      8 O5         -5.3308    0.3762   -0.7413 O.3       1 <0>        -0.3586
      9 N1          1.8669   -1.2709    1.2466 N.am      1 <0>        -0.2708
     10 N2         -1.2753   -0.8723    0.9861 N.am      1 <0>        -0.2976
     11 N3         -4.4853    1.4748   -0.6461 N.2       1 <0>        -0.0772
     12 C1          0.9383   -2.0465    0.4189 C.3       1 <0>         0.1005
     13 C2          2.6746   -0.5805   -0.9208 C.3       1 <0>         0.0417
     14 C3          2.7845   -0.3532    0.6024 C.3       1 <0>         0.1379
     15 C4         -0.1548   -1.7071    1.4415 C.3       1 <0>         0.1279
     16 C5          0.9435   -0.9270    2.1911 C.2       1 <0>         0.2402
     17 C6          3.5842   -1.6899   -1.4664 C.3       1 <0>        -0.0484
     18 C7          2.9075    0.7171   -1.6966 C.3       1 <0>        -0.0484
     19 C8          4.1381   -0.5974    1.1893 C.2       1 <0>         0.3269
     20 C9         -2.2855   -1.3557    0.1454 C.2       1 <0>         0.2502
     21 C10        -3.3545   -0.4085   -0.1982 C.2       1 <0>         0.1061
     22 C11        -3.2946    0.9672   -0.3156 C.2       1 <0>         0.1285
     23 C12        -4.6299   -0.7537   -0.4671 C.2       1 <0>         0.1469
     24 C13        -2.1611    1.8351   -0.1306 C.ar      1 <0>         0.0410
     25 C14        -5.3817   -2.0149   -0.5248 C.3       1 <0>        -0.0029
     26 C15        -1.3321    2.1461   -1.2112 C.ar      1 <0>         0.0517
     27 C16        -1.8855    2.3706    1.1298 C.ar      1 <0>         0.0517
     28 C17        -0.2342    2.9876   -1.0323 C.ar      1 <0>        -0.0427
     29 C18        -0.7875    3.2121    1.3086 C.ar      1 <0>        -0.0427
     30 C19         0.0383    3.5206    0.2275 C.ar      1 <0>        -0.0590
     31 H1          1.2150   -3.1021    0.3456 H         1 <0>         0.0640
     32 H2          2.4757    0.6626    0.8840 H         1 <0>         0.0631
     33 H3         -0.5098   -2.5707    2.0167 H         1 <0>         0.0622
     34 H4          3.4728   -2.6280   -0.9114 H         1 <0>         0.0244
     35 H5          3.3721   -1.8978   -2.5220 H         1 <0>         0.0244
     36 H6          4.6397   -1.4015   -1.4099 H         1 <0>         0.0244
     37 H7          2.7065    0.5888   -2.7667 H         1 <0>         0.0244
     38 H8          2.2733    1.5298   -1.3306 H         1 <0>         0.0244
     39 H9          3.9464    1.0514   -1.6023 H         1 <0>         0.0244
     40 H10        -1.3737    0.0502    1.3893 H         1 <0>         0.1499
     41 H11         5.9351    0.1441    1.0718 H         1 <0>         0.2951
     42 H12        -6.4600   -1.8357   -0.5851 H         1 <0>         0.0309
     43 H13        -5.0861   -2.5966   -1.4033 H         1 <0>         0.0309
     44 H14        -5.1938   -2.6197    0.3678 H         1 <0>         0.0309
     45 H15         0.4183    3.2403   -1.8642 H         1 <0>         0.0632
     46 H16        -0.5599    3.6356    2.2835 H         1 <0>         0.0632
     47 H17         0.8938    4.1751    0.3667 H         1 <0>         0.0618
@<TRIPOS>BOND
     1    1   26 1
     2    2   27 1
     3    3   12 1
     4    3   13 1
     5    4   16 2
     6    5   19 1
     7    5   41 1
     8    6   19 2
     9    7   20 2
    10    8   11 1
    11    8   23 1
    12    9   12 1
    13    9   14 1
    14    9   16 am
    15   10   15 1
    16   10   20 am
    17   10   40 1
    18   11   22 2
    19   12   15 1
    20   12   31 1
    21   13   14 1
    22   13   17 1
    23   13   18 1
    24   14   19 1
    25   14   32 1
    26   15   16 1
    27   15   33 1
    28   17   34 1
    29   17   35 1
    30   17   36 1
    31   18   37 1
    32   18   38 1
    33   18   39 1
    34   20   21 1
    35   21   22 1
    36   21   23 2
    37   22   24 1
    38   23   25 1
    39   24   26 ar
    40   24   27 ar
    41   25   42 1
    42   25   43 1
    43   25   44 1
    44   26   28 ar
    45   27   29 ar
    46   28   30 ar
    47   28   45 1
    48   29   30 ar
    49   29   46 1
    50   30   47 1
