@<TRIPOS>MOLECULE
DB00913
   54    56     0     0     0
SMALL
USER_CHARGES

@<TRIPOS>ATOM
      1 O1          3.0228   -1.7144    0.1155 O.3       1 <0>        -0.4643
      2 O2          1.9787   -1.0987    2.0820 O.2       1 <0>        -0.2498
      3 N1         -0.7284    0.9665    0.2249 N.3       1 <0>        -0.3019
      4 N2         -8.4303   -0.5102    0.2016 N.pl3     1 <0>        -0.3580
      5 C1          2.2148    0.4907    0.2681 C.3       1 <0>         0.0949
      6 C2          1.3161    0.2767   -0.9769 C.3       1 <0>        -0.0203
      7 C3          1.4848    1.4702    1.2225 C.3       1 <0>        -0.0203
      8 C4         -0.1362   -0.0685   -0.6276 C.3       1 <0>         0.0002
      9 C5          0.0192    1.0971    1.4784 C.3       1 <0>         0.0002
     10 C6          3.6250    1.0105   -0.0578 C.ar      1 <0>        -0.0305
     11 C7         -2.1342    0.6661    0.4951 C.3       1 <0>         0.0029
     12 C8          2.3766   -0.8528    0.9514 C.2       1 <0>         0.3178
     13 C9         -2.9345    0.5742   -0.8046 C.3       1 <0>        -0.0149
     14 C10         3.9815    1.2635   -1.3798 C.ar      1 <0>        -0.0575
     15 C11         4.5384    1.2250    0.9709 C.ar      1 <0>        -0.0575
     16 C12        -4.3908    0.2868   -0.5389 C.ar      1 <0>        -0.0460
     17 C13         5.2607    1.7347   -1.6751 C.ar      1 <0>        -0.0615
     18 C14         5.8176    1.6964    0.6755 C.ar      1 <0>        -0.0615
     19 C15         6.1788    1.9511   -0.6474 C.ar      1 <0>        -0.0617
     20 C16         3.2440   -3.0283    0.6379 C.3       1 <0>         0.0897
     21 C17        -4.8239   -1.0286   -0.4719 C.ar      1 <0>        -0.0568
     22 C18        -5.2723    1.3430   -0.3646 C.ar      1 <0>        -0.0568
     23 C19         3.9662   -3.8576   -0.4026 C.3       1 <0>        -0.0306
     24 C20        -6.1708   -1.2944   -0.2251 C.ar      1 <0>        -0.0408
     25 C21        -6.6193    1.0773   -0.1177 C.ar      1 <0>        -0.0408
     26 C22        -7.0685   -0.2415   -0.0479 C.ar      1 <0>         0.0246
     27 H1          1.7106   -0.5077   -1.6356 H         1 <0>         0.0291
     28 H2          1.2817    1.2002   -1.5723 H         1 <0>         0.0291
     29 H3          1.9926    1.5379    2.1931 H         1 <0>         0.0291
     30 H4          1.5171    2.4822    0.7935 H         1 <0>         0.0291
     31 H5         -0.1919   -1.0582   -0.1565 H         1 <0>         0.0427
     32 H6         -0.6369   -0.1377   -1.5966 H         1 <0>         0.0427
     33 H7         -0.4224    1.9019    2.0801 H         1 <0>         0.0427
     34 H8         -0.0601    0.1851    2.0804 H         1 <0>         0.0427
     35 H9         -2.2336   -0.2685    1.0642 H         1 <0>         0.0430
     36 H10        -2.5623    1.4624    1.1180 H         1 <0>         0.0430
     37 H11        -2.5852   -0.2260   -1.4646 H         1 <0>         0.0326
     38 H12        -2.8416    1.5052   -1.3795 H         1 <0>         0.0326
     39 H13         3.3149    1.1033   -2.2190 H         1 <0>         0.0621
     40 H14         4.2814    1.0275    2.0077 H         1 <0>         0.0621
     41 H15         5.5439    1.9307   -2.7053 H         1 <0>         0.0618
     42 H16         6.5332    1.8633    1.4754 H         1 <0>         0.0618
     43 H17         7.1753    2.3169   -0.8775 H         1 <0>         0.0618
     44 H18         2.2809   -3.4922    0.8781 H         1 <0>         0.0694
     45 H19         3.8527   -2.9618    1.5465 H         1 <0>         0.0694
     46 H20        -4.1327   -1.8559   -0.6054 H         1 <0>         0.0621
     47 H21        -4.9313    2.3732   -0.4152 H         1 <0>         0.0621
     48 H22         4.9232   -3.3954   -0.6666 H         1 <0>         0.0262
     49 H23         3.3775   -3.9173   -1.3239 H         1 <0>         0.0262
     50 H24         4.1522   -4.8707   -0.0355 H         1 <0>         0.0262
     51 H25        -6.5084   -2.3262   -0.1723 H         1 <0>         0.0636
     52 H26        -7.3087    1.9064    0.0190 H         1 <0>         0.0636
     53 H27        -9.0814    0.2528    0.3308 H         1 <0>         0.1423
     54 H28        -8.7565   -1.4662    0.2530 H         1 <0>         0.1423
@<TRIPOS>BOND
     1    1   12 1
     2    1   20 1
     3    2   12 2
     4    3    8 1
     5    3    9 1
     6    3   11 1
     7    4   26 1
     8    4   53 1
     9    4   54 1
    10    5    6 1
    11    5    7 1
    12    5   10 1
    13    5   12 1
    14    6    8 1
    15    6   27 1
    16    6   28 1
    17    7    9 1
    18    7   29 1
    19    7   30 1
    20    8   31 1
    21    8   32 1
    22    9   33 1
    23    9   34 1
    24   10   14 ar
    25   10   15 ar
    26   11   13 1
    27   11   35 1
    28   11   36 1
    29   13   16 1
    30   13   37 1
    31   13   38 1
    32   14   17 ar
    33   14   39 1
    34   15   18 ar
    35   15   40 1
    36   16   21 ar
    37   16   22 ar
    38   17   19 ar
    39   17   41 1
    40   18   19 ar
    41   18   42 1
    42   19   43 1
    43   20   23 1
    44   20   44 1
    45   20   45 1
    46   21   24 ar
    47   21   46 1
    48   22   25 ar
    49   22   47 1
    50   23   48 1
    51   23   49 1
    52   23   50 1
    53   24   26 ar
    54   24   51 1
    55   25   26 ar
    56   25   52 1
