@<TRIPOS>MOLECULE
DB00568
   56    59     0     0     0
SMALL
USER_CHARGES

@<TRIPOS>ATOM
      1 N1          1.4853   -0.3322   -0.0111 N.3       1 <0>        -0.2891
      2 N2         -1.1009   -1.6168    0.1317 N.3       1 <0>        -0.2963
      3 C1          0.2992    0.3926    0.4611 C.3       1 <0>         0.0126
      4 C2          1.3614   -1.7649    0.2846 C.3       1 <0>         0.0126
      5 C3          2.7012    0.2175    0.5852 C.3       1 <0>         0.0610
      6 C4         -0.9763   -0.1839   -0.1631 C.3       1 <0>         0.0121
      7 C5          0.0857   -2.3422   -0.3384 C.3       1 <0>         0.0121
      8 C6         -2.3160   -2.1660   -0.4666 C.3       1 <0>         0.0175
      9 C7          3.9330   -0.6146    0.2609 C.ar      1 <0>        -0.0259
     10 C8          2.9030    1.6860    0.2415 C.ar      1 <0>        -0.0259
     11 C9         -3.5446   -1.4833    0.0576 C.2       1 <0>        -0.0695
     12 C10         4.2870   -1.6426    1.1110 C.ar      1 <0>        -0.0568
     13 C11         3.5626    2.4977    1.1421 C.ar      1 <0>        -0.0568
     14 C12         4.6601   -0.3165   -0.8736 C.ar      1 <0>        -0.0568
     15 C13         2.4201    2.1627   -0.9601 C.ar      1 <0>        -0.0568
     16 C14         5.4165   -2.4053    0.8140 C.ar      1 <0>        -0.0614
     17 C15         3.7473    3.8440    0.8272 C.ar      1 <0>        -0.0614
     18 C16         5.7896   -1.0792   -1.1708 C.ar      1 <0>        -0.0614
     19 C17         2.6048    3.5089   -1.2750 C.ar      1 <0>        -0.0614
     20 C18        -4.4143   -0.8284   -0.7278 C.2       1 <0>        -0.0573
     21 C19         6.1678   -2.1235   -0.3270 C.ar      1 <0>        -0.0617
     22 C20         3.2684    4.3496   -0.3813 C.ar      1 <0>        -0.0617
     23 C21        -5.6406   -0.1583   -0.2638 C.ar      1 <0>        -0.0253
     24 C22        -5.7616    0.1877    1.0730 C.ar      1 <0>        -0.0546
     25 C23        -6.6513    0.1147   -1.1720 C.ar      1 <0>        -0.0546
     26 C24        -6.9230    0.8230    1.5127 C.ar      1 <0>        -0.0612
     27 C25        -7.8126    0.7502   -0.7324 C.ar      1 <0>        -0.0612
     28 C26        -7.9484    1.1042    0.6100 C.ar      1 <0>        -0.0617
     29 H1          0.3089    1.4575    0.2141 H         1 <0>         0.0439
     30 H2          0.2206    0.3291    1.5559 H         1 <0>         0.0439
     31 H3          1.3521   -1.9533    1.3666 H         1 <0>         0.0439
     32 H4          2.1710   -2.3459   -0.1671 H         1 <0>         0.0439
     33 H5          2.5780    0.1841    1.6803 H         1 <0>         0.0562
     34 H6         -1.8143    0.3821    0.2594 H         1 <0>         0.0439
     35 H7         -0.9697   -0.0034   -1.2470 H         1 <0>         0.0439
     36 H8          0.1598   -2.3029   -1.4339 H         1 <0>         0.0439
     37 H9          0.0102   -3.3990   -0.0544 H         1 <0>         0.0439
     38 H10        -2.4015   -3.2294   -0.2092 H         1 <0>         0.0470
     39 H11        -2.2739   -2.1089   -1.5625 H         1 <0>         0.0470
     40 H12        -3.7094   -1.5837    1.1266 H         1 <0>         0.0585
     41 H13         3.7208   -1.8650    2.0103 H         1 <0>         0.0621
     42 H14         3.9403    2.1129    2.0846 H         1 <0>         0.0621
     43 H15         4.3904    0.4684   -1.5698 H         1 <0>         0.0621
     44 H16         1.9249    1.5318   -1.6919 H         1 <0>         0.0621
     45 H17         5.7126   -3.2166    1.4725 H         1 <0>         0.0618
     46 H18         4.2647    4.4984    1.5228 H         1 <0>         0.0618
     47 H19         6.3719   -0.8639   -2.0620 H         1 <0>         0.0618
     48 H20         2.2380    3.9015   -2.2189 H         1 <0>         0.0618
     49 H21        -4.2272   -0.7808   -1.7984 H         1 <0>         0.0621
     50 H22         7.0469   -2.7177   -0.5587 H         1 <0>         0.0618
     51 H23         3.4137    5.3974   -0.6273 H         1 <0>         0.0618
     52 H24        -4.9808    0.0090    1.8055 H         1 <0>         0.0623
     53 H25        -6.5610   -0.1558   -2.2207 H         1 <0>         0.0623
     54 H26        -7.0273    1.1037    2.5567 H         1 <0>         0.0618
     55 H27        -8.6112    0.9693   -1.4351 H         1 <0>         0.0618
     56 H28        -8.8521    1.6001    0.9520 H         1 <0>         0.0618
@<TRIPOS>BOND
     1    1    3 1
     2    1    4 1
     3    1    5 1
     4    2    6 1
     5    2    7 1
     6    2    8 1
     7    3    6 1
     8    3   29 1
     9    3   30 1
    10    4    7 1
    11    4   31 1
    12    4   32 1
    13    5    9 1
    14    5   10 1
    15    5   33 1
    16    6   34 1
    17    6   35 1
    18    7   36 1
    19    7   37 1
    20    8   11 1
    21    8   38 1
    22    8   39 1
    23    9   12 ar
    24    9   14 ar
    25   10   13 ar
    26   10   15 ar
    27   11   20 2
    28   11   40 1
    29   12   16 ar
    30   12   41 1
    31   13   17 ar
    32   13   42 1
    33   14   18 ar
    34   14   43 1
    35   15   19 ar
    36   15   44 1
    37   16   21 ar
    38   16   45 1
    39   17   22 ar
    40   17   46 1
    41   18   21 ar
    42   18   47 1
    43   19   22 ar
    44   19   48 1
    45   20   23 1
    46   20   49 1
    47   21   50 1
    48   22   51 1
    49   23   24 ar
    50   23   25 ar
    51   24   26 ar
    52   24   52 1
    53   25   27 ar
    54   25   53 1
    55   26   28 ar
    56   26   54 1
    57   27   28 ar
    58   27   55 1
    59   28   56 1
