@<TRIPOS>MOLECULE
DB00599
   34    34     0     0     0
SMALL
USER_CHARGES

@<TRIPOS>ATOM
      1 S1         -3.1596   -3.8014   -0.0778 S.2       1 <0>        -0.0181
      2 O1         -2.4108    0.7067    1.8283 O.2       1 <0>        -0.2743
      3 O2         -0.5948   -0.2605   -2.4017 O.2       1 <0>        -0.2743
      4 N1         -2.6103   -1.3865    0.9113 N.am      1 <0>        -0.2667
      5 N2         -1.7031   -1.8697   -1.1999 N.am      1 <0>        -0.2667
      6 C1         -0.9636    0.1643   -0.0417 C.3       1 <0>         0.1255
      7 C2          0.3658   -0.2385    0.6212 C.3       1 <0>        -0.0215
      8 C3          1.5783   -0.0060   -0.2991 C.3       1 <0>        -0.0493
      9 C4         -0.9328    1.6637   -0.3716 C.3       1 <0>        -0.0332
     10 C5         -2.0696   -0.1113    0.9743 C.2       1 <0>         0.2338
     11 C6         -1.0780   -0.6395   -1.3350 C.2       1 <0>         0.2338
     12 C7          0.5507    0.5436    1.9243 C.3       1 <0>        -0.0610
     13 C8          2.9052   -0.4604    0.3137 C.3       1 <0>        -0.0556
     14 C9         -2.2626    2.1231   -0.9254 C.3       1 <0>        -0.0639
     15 C10        -2.4450   -2.2905   -0.1166 C.2       1 <0>         0.1429
     16 C11         4.0582   -0.2754   -0.6615 C.3       1 <0>        -0.0653
     17 H1          0.3370   -1.3069    0.8779 H         1 <0>         0.0313
     18 H2          1.6791    1.0526   -0.5607 H         1 <0>         0.0268
     19 H3          1.4635   -0.5619   -1.2342 H         1 <0>         0.0268
     20 H4         -0.1694    1.9073   -1.1180 H         1 <0>         0.0277
     21 H5         -0.7309    2.2866    0.5047 H         1 <0>         0.0277
     22 H6          1.4060    0.1403    2.4792 H         1 <0>         0.0233
     23 H7         -0.2746    0.4478    2.6304 H         1 <0>         0.0233
     24 H8          0.7684    1.6037    1.7674 H         1 <0>         0.0233
     25 H9          2.8422   -1.5155    0.6038 H         1 <0>         0.0263
     26 H10         3.1378    0.1167    1.2140 H         1 <0>         0.0263
     27 H11        -2.5534    1.5692   -1.8233 H         1 <0>         0.0230
     28 H12        -3.0779    2.0480   -0.2009 H         1 <0>         0.0230
     29 H13        -2.1944    3.1792   -1.2109 H         1 <0>         0.0230
     30 H14        -3.2504   -1.6505    1.6550 H         1 <0>         0.1565
     31 H15        -1.6775   -2.4881   -2.0057 H         1 <0>         0.1565
     32 H16         3.9023   -0.8643   -1.5710 H         1 <0>         0.0230
     33 H17         4.1668    0.7760   -0.9467 H         1 <0>         0.0230
     34 H18         4.9974   -0.6017   -0.2037 H         1 <0>         0.0230
@<TRIPOS>BOND
     1    1   15 2
     2    2   10 2
     3    3   11 2
     4    4   10 am
     5    4   15 1
     6    4   30 1
     7    5   11 am
     8    5   15 1
     9    5   31 1
    10    6    7 1
    11    6    9 1
    12    6   10 1
    13    6   11 1
    14    7    8 1
    15    7   12 1
    16    7   17 1
    17    8   13 1
    18    8   18 1
    19    8   19 1
    20    9   14 1
    21    9   20 1
    22    9   21 1
    23   12   22 1
    24   12   23 1
    25   12   24 1
    26   13   16 1
    27   13   25 1
    28   13   26 1
    29   14   27 1
    30   14   28 1
    31   14   29 1
    32   16   32 1
    33   16   33 1
    34   16   34 1
