@<TRIPOS>MOLECULE
DB00604
   61    63     0     0     0
SMALL
USER_CHARGES

@<TRIPOS>ATOM
      1 Cl1         8.2387   -2.2844   -0.0074 Cl        1 <0>        -0.0816
      2 F1         -8.7875   -2.3607   -0.2153 F         1 <0>        -0.2055
      3 O1          0.3310   -1.8186    1.6202 O.3       1 <0>        -0.3767
      4 O2         -5.1349    1.6797    0.5485 O.3       1 <0>        -0.4919
      5 O3          3.2293   -2.4108   -1.7795 O.2       1 <0>        -0.2701
      6 O4          3.5183    1.2196   -0.1133 O.3       1 <0>        -0.4943
      7 N1         -1.1218    0.8605   -0.4908 N.3       1 <0>        -0.2996
      8 N2          2.0851   -0.9347   -0.4054 N.am      1 <0>        -0.3058
      9 N3          8.1842    0.6430    0.8217 N.pl3     1 <0>        -0.3567
     10 C1          0.7542   -1.3931   -0.7397 C.3       1 <0>         0.0519
     11 C2         -0.2132   -1.2385    0.4397 C.3       1 <0>         0.0893
     12 C3          0.2052   -0.6446   -1.9567 C.3       1 <0>        -0.0192
     13 C4         -0.5580    0.2290    0.7088 C.3       1 <0>         0.0269
     14 C5         -0.1851    0.8008   -1.6215 C.3       1 <0>         0.0007
     15 C6         -1.5017    2.2450   -0.2116 C.3       1 <0>         0.0021
     16 C7         -2.8182    2.2879    0.5574 C.3       1 <0>        -0.0058
     17 C8          3.2231   -1.4928   -0.9635 C.2       1 <0>         0.2479
     18 C9         -3.9430    1.6210   -0.2228 C.3       1 <0>         0.0907
     19 C10         0.2445   -3.2360    1.5900 C.3       1 <0>         0.0369
     20 C11         4.5156   -0.9282   -0.4966 C.ar      1 <0>         0.0797
     21 C12         4.6092    0.4031   -0.0907 C.ar      1 <0>         0.1340
     22 C13         5.6443   -1.7475   -0.4671 C.ar      1 <0>        -0.0259
     23 C14        -6.0448    0.6724    0.3586 C.ar      1 <0>         0.1207
     24 C15         5.8315    0.9152    0.3447 C.ar      1 <0>         0.0029
     25 C16         6.8664   -1.2354   -0.0311 C.ar      1 <0>         0.0625
     26 C17         6.9601    0.0960    0.3747 C.ar      1 <0>         0.0466
     27 C18        -6.1415    0.0455   -0.8840 C.ar      1 <0>        -0.0172
     28 C19        -6.8747    0.2748    1.4071 C.ar      1 <0>        -0.0172
     29 C20         3.7074    2.5652    0.3193 C.3       1 <0>         0.0788
     30 C21        -7.0676   -0.9795   -1.0776 C.ar      1 <0>        -0.0230
     31 C22        -7.8008   -0.7501    1.2132 C.ar      1 <0>        -0.0230
     32 C23        -7.8973   -1.3773   -0.0289 C.ar      1 <0>         0.1236
     33 H1          0.8373   -2.4518   -1.0104 H         1 <0>         0.0525
     34 H2         -1.1570   -1.7476    0.1938 H         1 <0>         0.0627
     35 H3         -0.6831   -1.1721   -2.3284 H         1 <0>         0.0296
     36 H4          0.9369   -0.6426   -2.7736 H         1 <0>         0.0296
     37 H5         -1.2744    0.2444    1.5381 H         1 <0>         0.0452
     38 H6          0.3259    0.7700    1.0722 H         1 <0>         0.0452
     39 H7         -0.6518    1.2361   -2.5137 H         1 <0>         0.0427
     40 H8          0.7175    1.3884   -1.4089 H         1 <0>         0.0427
     41 H9         -0.7173    2.7807    0.3379 H         1 <0>         0.0428
     42 H10        -1.6537    2.7946   -1.1500 H         1 <0>         0.0428
     43 H11         2.1700   -0.1756    0.2624 H         1 <0>         0.1494
     44 H12        -2.7316    1.8379    1.5527 H         1 <0>         0.0310
     45 H13        -3.0896    3.3348    0.7445 H         1 <0>         0.0310
     46 H14        -4.1049    2.1439   -1.1727 H         1 <0>         0.0697
     47 H15        -3.6636    0.5798   -0.4236 H         1 <0>         0.0697
     48 H16        -0.7873   -3.5668    1.4352 H         1 <0>         0.0524
     49 H17         0.5782   -3.6129    2.5612 H         1 <0>         0.0524
     50 H18         0.9011   -3.6607    0.8263 H         1 <0>         0.0524
     51 H19         5.5746   -2.7878   -0.7774 H         1 <0>         0.0641
     52 H20         5.9657    1.9411    0.6721 H         1 <0>         0.0673
     53 H21        -5.5352    0.3436   -1.7342 H         1 <0>         0.0655
     54 H22        -6.8037    0.7596    2.3768 H         1 <0>         0.0655
     55 H23         9.0121    0.0626    0.8483 H         1 <0>         0.1424
     56 H24         8.2349    1.6106    1.1110 H         1 <0>         0.1424
     57 H25         2.7374    3.0669    0.2360 H         1 <0>         0.0660
     58 H26         4.4005    3.1068   -0.3333 H         1 <0>         0.0660
     59 H27         3.9984    2.6139    1.3742 H         1 <0>         0.0660
     60 H28        -7.1480   -1.4641   -2.0462 H         1 <0>         0.0647
     61 H29        -8.4471   -1.0598    2.0291 H         1 <0>         0.0647
@<TRIPOS>BOND
     1    1   25 1
     2    2   32 1
     3    3   11 1
     4    3   19 1
     5    4   18 1
     6    4   23 1
     7    5   17 2
     8    6   21 1
     9    6   29 1
    10    7   13 1
    11    7   14 1
    12    7   15 1
    13    8   10 1
    14    8   17 am
    15    8   43 1
    16    9   26 1
    17    9   55 1
    18    9   56 1
    19   10   11 1
    20   10   12 1
    21   10   33 1
    22   11   13 1
    23   11   34 1
    24   12   14 1
    25   12   35 1
    26   12   36 1
    27   13   37 1
    28   13   38 1
    29   14   39 1
    30   14   40 1
    31   15   16 1
    32   15   41 1
    33   15   42 1
    34   16   18 1
    35   16   44 1
    36   16   45 1
    37   17   20 1
    38   18   46 1
    39   18   47 1
    40   19   48 1
    41   19   49 1
    42   19   50 1
    43   20   21 ar
    44   20   22 ar
    45   21   24 ar
    46   22   25 ar
    47   22   51 1
    48   23   27 ar
    49   23   28 ar
    50   24   26 ar
    51   24   52 1
    52   25   26 ar
    53   27   30 ar
    54   27   53 1
    55   28   31 ar
    56   28   54 1
    57   29   57 1
    58   29   58 1
    59   29   59 1
    60   30   32 ar
    61   30   60 1
    62   31   32 ar
    63   31   61 1
