@<TRIPOS>MOLECULE
DB00259
   19    19     0     0     0
SMALL
USER_CHARGES

@<TRIPOS>ATOM
      1 S1         -2.4448    0.0003    0.6052 S.o2      1 <0>         0.0559
      2 O1         -2.8181   -1.2591    1.2336 O.2       1 <0>        -0.1533
      3 O2         -2.8212    1.2603    1.2308 O.2       1 <0>        -0.1533
      4 N1         -3.0077   -0.0005   -1.0081 N.pl3     1 <0>        -0.2035
      5 N2          3.4409    0.0001   -0.2414 N.pl3     1 <0>        -0.3580
      6 C1         -0.7169    0.0001    0.3546 C.ar      1 <0>         0.1051
      7 C2         -0.0266   -1.2079    0.2551 C.ar      1 <0>        -0.0336
      8 C3         -0.0265    1.2080    0.2551 C.ar      1 <0>        -0.0336
      9 C4          2.0444   -0.0002   -0.0434 C.ar      1 <0>         0.0247
     10 C5          1.3539   -1.2080    0.0561 C.ar      1 <0>        -0.0392
     11 C6          1.3542    1.2079    0.0561 C.ar      1 <0>        -0.0392
     12 H1         -0.5448   -2.1604    0.3234 H         1 <0>         0.0638
     13 H2         -0.5445    2.1604    0.3235 H         1 <0>         0.0638
     14 H3          1.8805   -2.1559   -0.0208 H         1 <0>         0.0636
     15 H4          1.8808    2.1558   -0.0207 H         1 <0>         0.0636
     16 H5         -3.4431   -0.8616   -1.3606 H         1 <0>         0.1442
     17 H6         -3.4430    0.8603   -1.3615 H         1 <0>         0.1442
     18 H7          3.9413   -0.8753   -0.3185 H         1 <0>         0.1423
     19 H8          3.9411    0.8757   -0.3185 H         1 <0>         0.1423
@<TRIPOS>BOND
     1    1    2 2
     2    1    3 2
     3    1    4 1
     4    1    6 1
     5    4   16 1
     6    4   17 1
     7    5    9 1
     8    5   18 1
     9    5   19 1
    10    6    7 ar
    11    6    8 ar
    12    7   10 ar
    13    7   12 1
    14    8   11 ar
    15    8   13 1
    16    9   10 ar
    17    9   11 ar
    18   10   14 1
    19   11   15 1
