@<TRIPOS>MOLECULE
DB00128
   16    15     0     0     0
SMALL
USER_CHARGES

@<TRIPOS>ATOM
      1 O1         -0.4605    2.1246    0.4630 O.3       1 <0>        -0.4795
      2 O2          2.7693   -0.3659   -0.5757 O.3       1 <0>        -0.4806
      3 O3         -1.4225    1.3821   -1.4524 O.2       1 <0>        -0.2492
      4 O4          1.8319    0.5766    1.2709 O.2       1 <0>        -0.2509
      5 N1         -1.9236   -1.0216   -0.2141 N.3       1 <0>        -0.3180
      6 C1         -0.7839   -0.2362    0.2596 C.3       1 <0>         0.1133
      7 C2          0.5253   -0.9246   -0.1459 C.3       1 <0>         0.0702
      8 C3         -0.9279    1.1458   -0.3580 C.2       1 <0>         0.3223
      9 C4          1.7468   -0.1486    0.2915 C.2       1 <0>         0.3067
     10 H1         -0.8536   -0.1444    1.3498 H         1 <0>         0.0579
     11 H2          0.5578   -1.0247   -1.2389 H         1 <0>         0.0398
     12 H3          0.5925   -1.9270    0.2922 H         1 <0>         0.0398
     13 H4         -2.7898   -0.6156    0.1386 H         1 <0>         0.1190
     14 H5         -1.8745   -1.9631    0.1735 H         1 <0>         0.1190
     15 H6         -0.5647    3.0152    0.0651 H         1 <0>         0.2951
     16 H7          3.5774    0.1273   -0.3190 H         1 <0>         0.2951
@<TRIPOS>BOND
     1    1    8 1
     2    1   15 1
     3    2    9 1
     4    2   16 1
     5    3    8 2
     6    4    9 2
     7    5    6 1
     8    5   13 1
     9    5   14 1
    10    6    7 1
    11    6    8 1
    12    6   10 1
    13    7    9 1
    14    7   11 1
    15    7   12 1
