@<TRIPOS>MOLECULE
DB00993
   26    28     0     0     0
SMALL
USER_CHARGES

@<TRIPOS>ATOM
      1 S1         -0.3517    0.0743    1.7051 S.3       1 <0>        -0.0414
      2 O1         -2.3939    2.4573    1.5879 O.3       1 <0>        -0.5746
      3 O2         -4.1522    2.4307    0.2737 O.2       1 <0>         0.0432
      4 N1         -1.7860   -1.3015   -0.1510 N.pl3     1 <0>        -0.3225
      5 N2          2.6986   -0.8088    0.7420 N.pl3     1 <0>        -0.3410
      6 N3         -3.5195   -0.0200   -0.6842 N.2       1 <0>        -0.1699
      7 N4          0.4572    2.0109   -0.0004 N.2       1 <0>        -0.2266
      8 N5          4.0760    0.2418   -0.6608 N.2       1 <0>        -0.2165
      9 N6         -3.1087    1.8773    0.7224 N.pl3     1 <0>         0.1034
     10 N7          2.6022    2.1102   -1.1583 N.2       1 <0>        -0.2145
     11 C1         -1.6935   -0.1744    0.5721 C.2       1 <0>         0.1824
     12 C2          2.0300    0.3104    0.3347 C.2       1 <0>         0.1177
     13 C3          0.7880    0.8493    0.6073 C.2       1 <0>         0.1318
     14 C4         -2.7401    0.6077    0.2551 C.2       1 <0>         0.3991
     15 C5         -2.9171   -1.1670   -0.9069 C.2       1 <0>         0.1034
     16 C6          2.9055    0.9460   -0.5355 C.2       1 <0>         0.1817
     17 C7         -0.9102   -2.4513   -0.1794 C.3       1 <0>         0.0139
     18 C8          3.9188   -0.8063    0.1193 C.cat     1 <0>         0.0963
     19 C9          1.3716    2.5619   -0.8337 C.2       1 <0>         0.1197
     20 H1         -3.2528   -1.9280   -1.5984 H         1 <0>         0.1031
     21 H2          0.0532   -2.1445   -0.5929 H         1 <0>         0.0456
     22 H3         -0.7979   -2.8353    0.8375 H         1 <0>         0.0456
     23 H4         -1.3497   -3.2268   -0.8123 H         1 <0>         0.0456
     24 H5          2.3574   -1.5124    1.3836 H         1 <0>         0.1669
     25 H6          4.6413   -1.5942    0.2772 H         1 <0>         0.1027
     26 H7          1.0737    3.4927   -1.3042 H         1 <0>         0.1048
@<TRIPOS>BOND
     1    1   11 1
     2    1   13 1
     3    2    9 1
     4    3    9 2
     5    4   11 1
     6    4   15 1
     7    4   17 1
     8    5   12 1
     9    5   18 2
    10    5   24 1
    11    6   14 1
    12    6   15 2
    13    7   13 2
    14    7   19 1
    15    8   16 2
    16    8   18 1
    17    9   14 1
    18   10   16 1
    19   10   19 2
    20   11   14 2
    21   12   13 1
    22   12   16 2
    23   15   20 1
    24   17   21 1
    25   17   22 1
    26   17   23 1
    27   18   25 1
    28   19   26 1
