@<TRIPOS>MOLECULE
DB00589
   51    54     0     0     0
SMALL
USER_CHARGES

@<TRIPOS>ATOM
      1 O1          3.4969   -0.2344    2.0093 O.2       1 <0>        -0.2526
      2 N1         -0.3434   -2.0835    0.2486 N.3       1 <0>        -0.2961
      3 N2          1.6851    0.1775    0.6543 N.am      1 <0>        -0.2917
      4 N3         -5.5625    0.2803   -1.5288 N.pl3     1 <0>        -0.3604
      5 N4          3.8679    0.6715   -0.0985 N.am      1 <0>        -0.2862
      6 C1         -1.6893   -1.4494    0.3179 C.3       1 <0>         0.0398
      7 C2         -1.6553    0.0079    0.8676 C.2       1 <0>        -0.0243
      8 C3         -2.3885   -1.5585   -1.0879 C.3       1 <0>        -0.0059
      9 C4          0.7024   -0.2892    1.6015 C.3       1 <0>         0.0563
     10 C5          0.4459   -1.7937    1.4573 C.3       1 <0>         0.0213
     11 C6         -3.6191   -0.7247   -1.1361 C.2       1 <0>        -0.0200
     12 C7         -2.8904    0.8143    0.7466 C.2       1 <0>        -0.0112
     13 C8         -3.7647    0.3616   -0.2487 C.2       1 <0>         0.0103
     14 C9         -0.5416    0.5227    1.4166 C.2       1 <0>        -0.0574
     15 C10        -4.9748    0.9860   -0.5014 C.2       1 <0>         0.0473
     16 C11        -0.4229   -3.5355    0.0582 C.3       1 <0>        -0.0121
     17 C12        -4.7464   -0.7581   -1.9228 C.2       1 <0>         0.0060
     18 C13        -3.2877    1.9351    1.4857 C.2       1 <0>        -0.0536
     19 C14        -5.3856    2.1044    0.2255 C.2       1 <0>        -0.0378
     20 C15        -4.5135    2.5645    1.2247 C.2       1 <0>        -0.0592
     21 C16         3.0506    0.1719    0.9321 C.2       1 <0>         0.3027
     22 C17         5.3171    0.7464    0.0315 C.3       1 <0>         0.0133
     23 C18         3.3157    1.1468   -1.3646 C.3       1 <0>         0.0133
     24 C19         5.9792   -0.5298   -0.4598 C.3       1 <0>        -0.0492
     25 C20         2.9921    2.6297   -1.3003 C.3       1 <0>        -0.0492
     26 H1         -2.3046   -2.0121    1.0384 H         1 <0>         0.0515
     27 H2         -2.6570   -2.5987   -1.3038 H         1 <0>         0.0332
     28 H3         -1.7030   -1.2178   -1.8747 H         1 <0>         0.0332
     29 H4          1.0817   -0.1082    2.6148 H         1 <0>         0.0556
     30 H5          1.4110   -2.3148    1.4114 H         1 <0>         0.0448
     31 H6         -0.0782   -2.1677    2.3481 H         1 <0>         0.0448
     32 H7         -0.5075    1.5491    1.7718 H         1 <0>         0.0594
     33 H8         -0.9939   -4.0252    0.8551 H         1 <0>         0.0391
     34 H9          0.5807   -3.9763    0.0379 H         1 <0>         0.0391
     35 H10        -0.8748   -3.7906   -0.9045 H         1 <0>         0.0391
     36 H11        -5.0475   -1.4158   -2.7259 H         1 <0>         0.0810
     37 H12         1.3291    0.5458   -0.2174 H         1 <0>         0.1509
     38 H13        -2.6596    2.3304    2.2798 H         1 <0>         0.0624
     39 H14        -6.4606    0.4954   -1.9393 H         1 <0>         0.1653
     40 H15        -6.3316    2.5972    0.0323 H         1 <0>         0.0638
     41 H16        -4.7990    3.4323    1.8151 H         1 <0>         0.0618
     42 H17         5.6932    1.6181   -0.5145 H         1 <0>         0.0462
     43 H18         5.5665    0.8884    1.0889 H         1 <0>         0.0462
     44 H19         4.0650    0.9804   -2.1484 H         1 <0>         0.0462
     45 H20         2.4473    0.5629   -1.6791 H         1 <0>         0.0462
     46 H21         5.6227   -1.3998    0.1017 H         1 <0>         0.0245
     47 H22         5.7642   -0.7062   -1.5185 H         1 <0>         0.0245
     48 H23         7.0649   -0.4658   -0.3381 H         1 <0>         0.0245
     49 H24         2.2388    2.8391   -0.5340 H         1 <0>         0.0245
     50 H25         3.8819    3.2214   -1.0618 H         1 <0>         0.0245
     51 H26         2.6033    2.9748   -2.2634 H         1 <0>         0.0245
@<TRIPOS>BOND
     1    1   21 2
     2    2    6 1
     3    2   10 1
     4    2   16 1
     5    3    9 1
     6    3   21 am
     7    3   37 1
     8    4   15 1
     9    4   17 2
    10    4   39 1
    11    5   21 am
    12    5   22 1
    13    5   23 1
    14    6    7 1
    15    6    8 1
    16    6   26 1
    17    7   12 1
    18    7   14 2
    19    8   11 1
    20    8   27 1
    21    8   28 1
    22    9   10 1
    23    9   14 1
    24    9   29 1
    25   10   30 1
    26   10   31 1
    27   11   13 2
    28   11   17 1
    29   12   13 1
    30   12   18 2
    31   13   15 2
    32   14   32 1
    33   15   19 1
    34   16   33 1
    35   16   34 1
    36   16   35 1
    37   17   36 1
    38   18   20 1
    39   18   38 1
    40   19   20 2
    41   19   40 1
    42   20   41 1
    43   22   24 1
    44   22   42 1
    45   22   43 1
    46   23   25 1
    47   23   44 1
    48   23   45 1
    49   24   46 1
    50   24   47 1
    51   24   48 1
    52   25   49 1
    53   25   50 1
    54   25   51 1
