@<TRIPOS>MOLECULE
DB00824
   24    25     0     0     0
SMALL
USER_CHARGES

@<TRIPOS>ATOM
      1 O1          0.3561    2.8098   -0.3480 O.2       1 <0>        -0.2464
      2 O2         -3.9759    1.4315    0.4976 O.2       1 <0>        -0.2654
      3 N1         -0.0468    0.5057   -0.3866 N.am      1 <0>        -0.2766
      4 N2         -1.7915    2.0886    0.0679 N.am      1 <0>        -0.2731
      5 N3         -2.9536   -1.3901    0.1287 N.pl3     1 <0>        -0.3389
      6 N4         -0.8195   -1.8354   -0.3481 N.2       1 <0>        -0.2179
      7 C1          1.3299    0.1477   -0.6970 C.3       1 <0>         0.0293
      8 C2         -1.0128   -0.4853   -0.2350 C.cat     1 <0>         0.1679
      9 C3          2.1700   -0.0681    0.5560 C.3       1 <0>        -0.0376
     10 C4         -2.3184   -0.1846    0.0582 C.2       1 <0>         0.1487
     11 C5         -0.4251    1.8610   -0.2338 C.2       1 <0>         0.3310
     12 C6         -2.8132    1.1420    0.2344 C.2       1 <0>         0.2796
     13 C7          3.6165   -0.4213    0.2407 C.3       1 <0>        -0.0637
     14 C8         -2.0099   -2.3533   -0.1231 C.2       1 <0>         0.0963
     15 H1          1.7715    0.9576   -1.2905 H         1 <0>         0.0494
     16 H2          1.3385   -0.7468   -1.3311 H         1 <0>         0.0494
     17 H3          2.1504    0.8364    1.1759 H         1 <0>         0.0280
     18 H4          1.7316   -0.8696    1.1628 H         1 <0>         0.0280
     19 H5         -2.0638    3.0617    0.1781 H         1 <0>         0.1735
     20 H6         -3.9325   -1.5478    0.3283 H         1 <0>         0.1670
     21 H7          4.0985    0.3789   -0.3299 H         1 <0>         0.0230
     22 H8          4.1819   -0.5684    1.1661 H         1 <0>         0.0230
     23 H9          3.6741   -1.3445   -0.3447 H         1 <0>         0.0230
     24 H10        -2.2560   -3.4055   -0.1269 H         1 <0>         0.1027
@<TRIPOS>BOND
     1    1   11 2
     2    2   12 2
     3    3    7 1
     4    3    8 2
     5    3   11 am
     6    4   11 am
     7    4   12 am
     8    4   19 1
     9    5   10 2
    10    5   14 1
    11    5   20 1
    12    6    8 1
    13    6   14 2
    14    7    9 1
    15    7   15 1
    16    7   16 1
    17    8   10 1
    18    9   13 1
    19    9   17 1
    20    9   18 1
    21   10   12 1
    22   13   21 1
    23   13   22 1
    24   13   23 1
    25   14   24 1
