@<TRIPOS>MOLECULE
DB00810
   52    55     0     0     0
SMALL
USER_CHARGES

@<TRIPOS>ATOM
      1 O1          1.9309    0.1270   -1.7747 O.3       1 <0>        -0.3836
      2 N1         -2.4599   -0.6699    0.1451 N.3       1 <0>        -0.3022
      3 C1          2.0030   -0.6780    0.4532 C.3       1 <0>        -0.0011
      4 C2          2.0282   -2.1783    0.0576 C.3       1 <0>        -0.0166
      5 C3          4.1974   -1.7030    0.3070 C.3       1 <0>        -0.0220
      6 C4          3.5216   -0.3378    0.5698 C.3       1 <0>        -0.0404
      7 C5          3.1883   -2.6707    0.9328 C.3       1 <0>        -0.0401
      8 C6          1.2478    0.2304   -0.5057 C.3       1 <0>         0.0954
      9 C7          2.6806   -2.3408   -1.2957 C.2       1 <0>        -0.0842
     10 C8          3.9813   -2.0501   -1.1468 C.2       1 <0>        -0.0845
     11 C9         -0.2065   -0.2751   -0.7410 C.3       1 <0>        -0.0067
     12 C10         1.2581    1.7216   -0.1475 C.ar      1 <0>        -0.0158
     13 C11        -1.1249   -0.1752    0.4802 C.3       1 <0>         0.0018
     14 C12         1.3377    2.0768    1.1776 C.ar      1 <0>        -0.0558
     15 C13         1.1867    2.6408   -1.1665 C.ar      1 <0>        -0.0558
     16 C14        -3.0535    0.1395   -0.9284 C.3       1 <0>        -0.0011
     17 C15        -3.3181   -0.6815    1.3381 C.3       1 <0>        -0.0011
     18 C16        -4.4306   -0.3948   -1.3254 C.3       1 <0>        -0.0402
     19 C17        -4.7038   -1.2424    1.0153 C.3       1 <0>        -0.0402
     20 C18        -5.3635   -0.4710   -0.1222 C.3       1 <0>        -0.0507
     21 C19         1.3466    3.4332    1.5035 C.ar      1 <0>        -0.0614
     22 C20         1.1958    3.9971   -0.8409 C.ar      1 <0>        -0.0614
     23 C21         1.2757    4.3932    0.4942 C.ar      1 <0>        -0.0617
     24 H1          1.5675   -0.6314    1.4592 H         1 <0>         0.0338
     25 H2          1.1012   -2.7359    0.1979 H         1 <0>         0.0347
     26 H3          5.2243   -1.8060    0.6585 H         1 <0>         0.0343
     27 H4          3.7403   -0.0064    1.5924 H         1 <0>         0.0275
     28 H5          3.8845    0.4387   -0.1092 H         1 <0>         0.0275
     29 H6          3.4387   -3.7275    0.7730 H         1 <0>         0.0277
     30 H7          3.0307   -2.5002    2.0039 H         1 <0>         0.0277
     31 H8          2.1828   -2.6011   -2.2164 H         1 <0>         0.0572
     32 H9          4.7262   -2.0262   -1.9256 H         1 <0>         0.0572
     33 H10        -0.5823    0.3317   -1.5716 H         1 <0>         0.0309
     34 H11        -0.1989   -1.3008   -1.1306 H         1 <0>         0.0309
     35 H12        -1.1853    0.8566    0.8440 H         1 <0>         0.0427
     36 H13        -0.7090   -0.7874    1.2883 H         1 <0>         0.0427
     37 H14         2.7256    0.6858   -1.7707 H         1 <0>         0.2106
     38 H15        -2.4721    0.0989   -1.8522 H         1 <0>         0.0426
     39 H16        -3.1355    1.1930   -0.6302 H         1 <0>         0.0426
     40 H17        -3.4189    0.3286    1.7569 H         1 <0>         0.0426
     41 H18        -2.8680   -1.3126    2.1141 H         1 <0>         0.0426
     42 H19         1.3732    1.3646    1.9925 H         1 <0>         0.0621
     43 H20         1.1019    2.3605   -2.2114 H         1 <0>         0.0621
     44 H21        -4.8722    0.2507   -2.0933 H         1 <0>         0.0278
     45 H22        -4.3249   -1.3932   -1.7690 H         1 <0>         0.0278
     46 H23        -4.6162   -2.3003    0.7368 H         1 <0>         0.0278
     47 H24        -5.3381   -1.1986    1.9079 H         1 <0>         0.0278
     48 H25        -5.6075    0.5433    0.2167 H         1 <0>         0.0266
     49 H26        -6.3059   -0.9517   -0.4062 H         1 <0>         0.0266
     50 H27         1.4035    3.7420    2.5432 H         1 <0>         0.0618
     51 H28         1.1351    4.7449   -1.6262 H         1 <0>         0.0618
     52 H29         1.2802    5.4491    0.7479 H         1 <0>         0.0618
@<TRIPOS>BOND
     1    1    8 1
     2    1   37 1
     3    2   13 1
     4    2   16 1
     5    2   17 1
     6    3    4 1
     7    3    6 1
     8    3    8 1
     9    3   24 1
    10    4    7 1
    11    4    9 1
    12    4   25 1
    13    5    6 1
    14    5    7 1
    15    5   10 1
    16    5   26 1
    17    6   27 1
    18    6   28 1
    19    7   29 1
    20    7   30 1
    21    8   11 1
    22    8   12 1
    23    9   10 2
    24    9   31 1
    25   10   32 1
    26   11   13 1
    27   11   33 1
    28   11   34 1
    29   12   14 ar
    30   12   15 ar
    31   13   35 1
    32   13   36 1
    33   14   21 ar
    34   14   42 1
    35   15   22 ar
    36   15   43 1
    37   16   18 1
    38   16   38 1
    39   16   39 1
    40   17   19 1
    41   17   40 1
    42   17   41 1
    43   18   20 1
    44   18   44 1
    45   18   45 1
    46   19   20 1
    47   19   46 1
    48   19   47 1
    49   20   48 1
    50   20   49 1
    51   21   23 ar
    52   21   50 1
    53   22   23 ar
    54   22   51 1
    55   23   52 1
