@<TRIPOS>MOLECULE
DB00822
   36    35     0     0     0
SMALL
USER_CHARGES

@<TRIPOS>ATOM
      1 S1          0.3649   -1.5130   -1.4891 S.3       1 <0>        -0.0271
      2 S2         -0.9465   -2.3427   -0.1304 S.3       1 <0>        -0.0271
      3 S3          2.4335   -3.2831   -0.2856 S.2       1 <0>        -0.0271
      4 S4         -0.4151   -0.5688    2.1998 S.2       1 <0>        -0.0271
      5 N1          2.6349   -0.5326   -0.3670 N.pl3     1 <0>        -0.3189
      6 N2         -2.4930   -0.1810    0.4260 N.pl3     1 <0>        -0.3189
      7 C1          3.9441   -0.5004    0.2924 C.3       1 <0>         0.0103
      8 C2          2.1137    0.7968   -0.6951 C.3       1 <0>         0.0103
      9 C3         -2.9441    1.0243    1.1262 C.3       1 <0>         0.0103
     10 C4         -3.2971   -0.5053   -0.7562 C.3       1 <0>         0.0103
     11 C5          3.8056   -0.3652    1.7947 C.3       1 <0>        -0.0493
     12 C6          2.5653    1.2461   -2.0694 C.3       1 <0>        -0.0493
     13 C7         -2.2453    2.2630    0.6051 C.3       1 <0>        -0.0493
     14 C8         -4.4221   -1.4613   -0.4168 C.3       1 <0>        -0.0493
     15 C9          1.9188   -1.7133   -0.6503 C.2       1 <0>         0.1200
     16 C10        -1.3776   -0.9286    0.8558 C.2       1 <0>         0.1200
     17 H1          4.5033   -1.4113    0.0601 H         1 <0>         0.0461
     18 H2          4.5321    0.3320   -0.1106 H         1 <0>         0.0461
     19 H3          1.0240    0.8341   -0.6283 H         1 <0>         0.0461
     20 H4          2.4702    1.5121    0.0556 H         1 <0>         0.0461
     21 H5         -4.0294    1.1252    1.0095 H         1 <0>         0.0461
     22 H6         -2.7655    0.9273    2.2011 H         1 <0>         0.0461
     23 H7         -3.7117    0.4207   -1.1724 H         1 <0>         0.0461
     24 H8         -2.6789   -0.9293   -1.5501 H         1 <0>         0.0461
     25 H9          3.2869    0.5589    2.0686 H         1 <0>         0.0245
     26 H10         3.2413   -1.2001    2.2216 H         1 <0>         0.0245
     27 H11         4.7932   -0.3490    2.2660 H         1 <0>         0.0245
     28 H12         3.6570    1.3009   -2.1319 H         1 <0>         0.0245
     29 H13         2.2259    0.5616   -2.8526 H         1 <0>         0.0245
     30 H14         2.1660    2.2405   -2.2926 H         1 <0>         0.0245
     31 H15        -1.1596    2.1998    0.7260 H         1 <0>         0.0245
     32 H16        -2.4482    2.4134   -0.4603 H         1 <0>         0.0245
     33 H17        -2.5946    3.1499    1.1431 H         1 <0>         0.0245
     34 H18        -4.0454   -2.4057   -0.0126 H         1 <0>         0.0245
     35 H19        -5.0954   -1.0293    0.3309 H         1 <0>         0.0245
     36 H20        -5.0113   -1.6866   -1.3112 H         1 <0>         0.0245
@<TRIPOS>BOND
     1    1    2 1
     2    1   15 1
     3    2   16 1
     4    3   15 2
     5    4   16 2
     6    5    7 1
     7    5    8 1
     8    5   15 1
     9    6    9 1
    10    6   10 1
    11    6   16 1
    12    7   11 1
    13    7   17 1
    14    7   18 1
    15    8   12 1
    16    8   19 1
    17    8   20 1
    18    9   13 1
    19    9   21 1
    20    9   22 1
    21   10   14 1
    22   10   23 1
    23   10   24 1
    24   11   25 1
    25   11   26 1
    26   11   27 1
    27   12   28 1
    28   12   29 1
    29   12   30 1
    30   13   31 1
    31   13   32 1
    32   13   33 1
    33   14   34 1
    34   14   35 1
    35   14   36 1
