@<TRIPOS>MOLECULE
DB00915
   28    30     0     0     0
SMALL
USER_CHARGES

@<TRIPOS>ATOM
      1 N1         -2.7302    0.0021   -0.4172 N.3       1 <0>        -0.3246
      2 C1         -1.2820    0.0064   -0.2186 C.3       1 <0>         0.0172
      3 C2          0.8613   -1.2624   -0.6510 C.3       1 <0>        -0.0389
      4 C3          0.8712    1.2591   -0.6488 C.3       1 <0>        -0.0389
      5 C4          0.5609   -0.0024    1.5124 C.3       1 <0>        -0.0389
      6 C5         -0.6635   -1.2527   -0.8646 C.3       1 <0>        -0.0320
      7 C6         -0.6536    1.2617   -0.8625 C.3       1 <0>        -0.0320
      8 C7         -0.9630    0.0039    1.2936 C.3       1 <0>        -0.0320
      9 C8          1.4701   -0.0035   -1.2918 C.3       1 <0>        -0.0472
     10 C9          1.1612   -1.2581    0.8576 C.3       1 <0>        -0.0472
     11 C10         1.1710    1.2498    0.8599 C.3       1 <0>        -0.0472
     12 H1          1.2932   -2.1578   -1.1116 H         1 <0>         0.0302
     13 H2          1.3103    2.1518   -1.1078 H         1 <0>         0.0302
     14 H3          0.7800   -0.0041    2.5859 H         1 <0>         0.0302
     15 H4         -0.8842   -1.2800   -1.9399 H         1 <0>         0.0286
     16 H5         -1.0992   -2.1622   -0.4302 H         1 <0>         0.0286
     17 H6         -1.0833    2.1733   -0.4264 H         1 <0>         0.0286
     18 H7         -0.8743    1.2924   -1.9376 H         1 <0>         0.0286
     19 H8         -1.4057   -0.8759    1.7793 H         1 <0>         0.0286
     20 H9         -1.3995    0.8860    1.7805 H         1 <0>         0.0286
     21 H10         2.5596   -0.0079   -1.1635 H         1 <0>         0.0271
     22 H11         1.2767   -0.0017   -2.3715 H         1 <0>         0.0271
     23 H12         0.7454   -2.1594    1.3247 H         1 <0>         0.0271
     24 H13         2.2452   -1.2848    1.0236 H         1 <0>         0.0271
     25 H14         2.2552    1.2676    1.0260 H         1 <0>         0.0271
     26 H15         0.7624    2.1534    1.3286 H         1 <0>         0.0271
     27 H16        -3.1444    0.8176    0.0329 H         1 <0>         0.1187
     28 H17        -3.1409   -0.8122    0.0380 H         1 <0>         0.1187
@<TRIPOS>BOND
     1    1    2 1
     2    1   27 1
     3    1   28 1
     4    2    6 1
     5    2    7 1
     6    2    8 1
     7    3    6 1
     8    3    9 1
     9    3   10 1
    10    3   12 1
    11    4    7 1
    12    4    9 1
    13    4   11 1
    14    4   13 1
    15    5    8 1
    16    5   10 1
    17    5   11 1
    18    5   14 1
    19    6   15 1
    20    6   16 1
    21    7   17 1
    22    7   18 1
    23    8   19 1
    24    8   20 1
    25    9   21 1
    26    9   22 1
    27   10   23 1
    28   10   24 1
    29   11   25 1
    30   11   26 1
