@<TRIPOS>MOLECULE
DB00452
   88    91     0     0     0
SMALL
USER_CHARGES

@<TRIPOS>ATOM
      1 O1         -0.7309    1.6189   -0.3140 O.3       1 <0>        -0.3402
      2 O2         -3.0397    0.0727   -0.9239 O.3       1 <0>        -0.3422
      3 O3         -0.0787    1.6114   -2.5748 O.3       1 <0>        -0.3405
      4 O4          3.2822    0.6822   -1.7318 O.3       1 <0>        -0.3410
      5 O5         -1.3285    4.4114    0.1916 O.3       1 <0>        -0.3876
      6 O6         -3.3171   -1.6891    0.6028 O.3       1 <0>        -0.3425
      7 O7          3.5559   -0.3211    0.3782 O.3       1 <0>        -0.3425
      8 O8          2.2492    3.2206   -1.5608 O.3       1 <0>        -0.3841
      9 O9         -0.7152   -3.5474   -1.0365 O.3       1 <0>        -0.3874
     10 O10        -4.1309   -4.4477   -0.2505 O.3       1 <0>        -0.3866
     11 O11         6.2939    1.8542    1.0741 O.3       1 <0>        -0.3874
     12 O12         0.0633   -0.3559   -4.5913 O.3       1 <0>        -0.3924
     13 O13         5.9797   -1.7803    1.1647 O.3       1 <0>        -0.3866
     14 N1         -5.2593    0.4351    0.9120 N.3       1 <0>        -0.3250
     15 N2         -3.4872    4.8383    2.0643 N.3       1 <0>        -0.3250
     16 N3         -3.9600   -2.2502   -2.2261 N.3       1 <0>        -0.3211
     17 N4          5.7625   -0.6518   -1.5675 N.3       1 <0>        -0.3211
     18 N5         -1.1969   -4.0030    2.5938 N.3       1 <0>        -0.3276
     19 N6          2.0792   -1.1045    2.6198 N.3       1 <0>        -0.3276
     20 C1         -2.0538    2.1613   -0.2571 C.3       1 <0>         0.1166
     21 C2         -3.0015    1.0254    0.1427 C.3       1 <0>         0.1055
     22 C3         -4.4216    1.5337    0.4240 C.3       1 <0>         0.0355
     23 C4         -2.0736    3.3226    0.7435 C.3       1 <0>         0.0990
     24 C5         -3.5021    3.8103    1.0198 C.3       1 <0>         0.0351
     25 C6         -4.4110    2.6597    1.4612 C.3       1 <0>        -0.0175
     26 C7          0.0523    2.2768   -1.3028 C.3       1 <0>         0.1884
     27 C8          1.8939    0.8400   -1.5311 C.3       1 <0>         0.1205
     28 C9          1.5219    2.1766   -0.9213 C.3       1 <0>         0.1345
     29 C10         1.1287    0.8767   -2.8439 C.3       1 <0>         0.1135
     30 C11        -2.5524   -1.1994   -0.4974 C.3       1 <0>         0.1776
     31 C12        -2.6006   -2.1789   -1.6796 C.3       1 <0>         0.0853
     32 C13        -2.1287   -3.5722   -1.2357 C.3       1 <0>         0.1033
     33 C14         4.0039    0.7105   -0.5023 C.3       1 <0>         0.1776
     34 C15        -2.7984   -4.0341    0.0641 C.3       1 <0>         0.1100
     35 C16        -2.8702   -2.9388    1.1427 C.3       1 <0>         0.1022
     36 C17         5.5084    0.5652   -0.7897 C.3       1 <0>         0.0853
     37 C18         6.3015    0.5337    0.5272 C.3       1 <0>         0.1033
     38 C19         0.7808   -0.5018   -3.3767 C.3       1 <0>         0.0730
     39 C20         5.6961   -0.4377    1.5513 C.3       1 <0>         0.1100
     40 C21         4.1748   -0.2451    1.6686 C.3       1 <0>         0.1022
     41 C22        -1.5717   -2.7645    1.9283 C.3       1 <0>         0.0222
     42 C23         3.5197   -1.3026    2.5505 C.3       1 <0>         0.0222
     43 H1         -2.3430    2.5099   -1.2593 H         1 <0>         0.0650
     44 H2         -2.5934    0.5737    1.0598 H         1 <0>         0.0639
     45 H3         -4.8664    1.8987   -0.5106 H         1 <0>         0.0485
     46 H4         -1.5676    3.0255    1.6705 H         1 <0>         0.0636
     47 H5         -3.9151    4.2693    0.1122 H         1 <0>         0.0485
     48 H6         -5.4330    3.0323    1.6130 H         1 <0>         0.0297
     49 H7         -4.0713    2.2689    2.4312 H         1 <0>         0.0297
     50 H8         -0.2328    3.3174   -1.4664 H         1 <0>         0.0938
     51 H9          1.5004    0.0236   -0.9100 H         1 <0>         0.0651
     52 H10         1.6945    2.2297    0.1578 H         1 <0>         0.0671
     53 H11         1.6787    1.4323   -3.6142 H         1 <0>         0.0647
     54 H12        -1.5084   -1.0594   -0.1932 H         1 <0>         0.0927
     55 H13        -1.9561   -1.7955   -2.4773 H         1 <0>         0.0535
     56 H14        -2.3231   -4.3031   -2.0308 H         1 <0>         0.0637
     57 H15         3.8504    1.6838   -0.0213 H         1 <0>         0.0927
     58 H16        -5.3011   -0.3008    0.2082 H         1 <0>         0.1185
     59 H17        -6.2149    0.7644    1.0422 H         1 <0>         0.1185
     60 H18        -2.2852   -4.9247    0.4425 H         1 <0>         0.0646
     61 H19        -3.6516   -3.2189    1.8616 H         1 <0>         0.0636
     62 H20        -2.9149    5.6248    1.7598 H         1 <0>         0.1185
     63 H21        -4.4293    5.2025    2.2006 H         1 <0>         0.1185
     64 H22         5.8264    1.4202   -1.3995 H         1 <0>         0.0535
     65 H23         7.3480    0.2759    0.3231 H         1 <0>         0.0637
     66 H24        -1.8038    4.7348   -0.5928 H         1 <0>         0.2100
     67 H25         0.1462   -1.0416   -2.6704 H         1 <0>         0.0584
     68 H26         1.6848   -1.0878   -3.5694 H         1 <0>         0.0584
     69 H27         6.1466   -0.2789    2.5384 H         1 <0>         0.0646
     70 H28         3.9649    0.7470    2.0917 H         1 <0>         0.0636
     71 H29         1.9461    4.0619   -1.1787 H         1 <0>         0.2101
     72 H30        -0.7454   -2.4449    1.2881 H         1 <0>         0.0448
     73 H31        -1.6996   -1.9691    2.6721 H         1 <0>         0.0448
     74 H32        -4.2516   -1.3239   -2.5356 H         1 <0>         0.1187
     75 H33        -3.9657   -2.8468   -3.0523 H         1 <0>         0.1187
     76 H34         3.6884   -2.3042    2.1403 H         1 <0>         0.0448
     77 H35         3.9451   -1.2745    3.5594 H         1 <0>         0.0448
     78 H36         5.2500   -0.6066   -2.4473 H         1 <0>         0.1187
     79 H37         6.7509   -0.7024   -1.8105 H         1 <0>         0.1187
     80 H38        -0.3038   -3.3068   -1.8840 H         1 <0>         0.2100
     81 H39        -4.5229   -4.8176    0.5589 H         1 <0>         0.2100
     82 H40         6.8220    1.8358    1.8902 H         1 <0>         0.2100
     83 H41        -0.1542   -1.2506   -4.9041 H         1 <0>         0.2095
     84 H42         6.9465   -1.8748    1.1218 H         1 <0>         0.2100
     85 H43        -0.3664   -3.8441    3.1627 H         1 <0>         0.1183
     86 H44        -1.9345   -4.2851    3.2380 H         1 <0>         0.1183
     87 H45         1.6712   -1.7916    3.2522 H         1 <0>         0.1183
     88 H46         1.8762   -0.1899    3.0210 H         1 <0>         0.1183
@<TRIPOS>BOND
     1    1   20 1
     2    1   26 1
     3    2   21 1
     4    2   30 1
     5    3   26 1
     6    3   29 1
     7    4   27 1
     8    4   33 1
     9    5   23 1
    10    5   66 1
    11    6   30 1
    12    6   35 1
    13    7   33 1
    14    7   40 1
    15    8   28 1
    16    8   71 1
    17    9   32 1
    18    9   80 1
    19   10   34 1
    20   10   81 1
    21   11   37 1
    22   11   82 1
    23   12   38 1
    24   12   83 1
    25   13   39 1
    26   13   84 1
    27   14   22 1
    28   14   58 1
    29   14   59 1
    30   15   24 1
    31   15   62 1
    32   15   63 1
    33   16   31 1
    34   16   74 1
    35   16   75 1
    36   17   36 1
    37   17   78 1
    38   17   79 1
    39   18   41 1
    40   18   85 1
    41   18   86 1
    42   19   42 1
    43   19   87 1
    44   19   88 1
    45   20   21 1
    46   20   23 1
    47   20   43 1
    48   21   22 1
    49   21   44 1
    50   22   25 1
    51   22   45 1
    52   23   24 1
    53   23   46 1
    54   24   25 1
    55   24   47 1
    56   25   48 1
    57   25   49 1
    58   26   28 1
    59   26   50 1
    60   27   28 1
    61   27   29 1
    62   27   51 1
    63   28   52 1
    64   29   38 1
    65   29   53 1
    66   30   31 1
    67   30   54 1
    68   31   32 1
    69   31   55 1
    70   32   34 1
    71   32   56 1
    72   33   36 1
    73   33   57 1
    74   34   35 1
    75   34   60 1
    76   35   41 1
    77   35   61 1
    78   36   37 1
    79   36   64 1
    80   37   39 1
    81   37   65 1
    82   38   67 1
    83   38   68 1
    84   39   40 1
    85   39   69 1
    86   40   42 1
    87   40   70 1
    88   41   72 1
    89   41   73 1
    90   42   76 1
    91   42   77 1
