@<TRIPOS>MOLECULE
DB00216
   53    56     0     0     0
SMALL
USER_CHARGES

@<TRIPOS>ATOM
      1 S1          4.2769   -0.4276    1.3914 S.o2      1 <0>        -0.0028
      2 O1          5.1650   -1.5655    1.5543 O.2       1 <0>        -0.1693
      3 O2          3.8478    0.3377    2.5490 O.2       1 <0>        -0.1693
      4 N1         -3.9678    2.0468    0.7195 N.3       1 <0>        -0.3021
      5 N2         -2.8480   -3.3891   -1.1106 N.pl3     1 <0>        -0.3604
      6 C1         -3.3748    0.8728    0.0643 C.3       1 <0>         0.0142
      7 C2         -4.1717    0.7772   -1.2384 C.3       1 <0>        -0.0359
      8 C3         -4.6712    2.1920   -1.5094 C.3       1 <0>        -0.0388
      9 C4         -4.1464    3.0279   -0.3538 C.3       1 <0>        -0.0011
     10 C5         -3.4870   -0.4022    0.8904 C.3       1 <0>        -0.0100
     11 C6         -2.9554   -1.6011    0.1666 C.2       1 <0>        -0.0209
     12 C7         -3.1478    2.5807    1.8003 C.3       1 <0>        -0.0125
     13 C8         -1.6251   -2.0685    0.2077 C.ar      1 <0>         0.0031
     14 C9         -3.6907   -2.4171   -0.6419 C.cat     1 <0>         0.0060
     15 C10        -1.5802   -3.2013   -0.6079 C.ar      1 <0>         0.0467
     16 C11        -0.4446   -1.6506    0.8535 C.ar      1 <0>        -0.0491
     17 C12         0.7343   -2.3797    0.6599 C.ar      1 <0>        -0.0451
     18 C13        -0.4090   -3.9397   -0.8108 C.ar      1 <0>        -0.0375
     19 C14         1.9888   -1.9429    1.3413 C.3       1 <0>        -0.0078
     20 C15         0.7496   -3.5062   -0.1600 C.ar      1 <0>        -0.0565
     21 C16         2.8302   -0.9565    0.5282 C.3       1 <0>         0.0748
     22 C17         5.0645    0.6843    0.2650 C.ar      1 <0>         0.0882
     23 C18         4.7451    2.0303    0.3101 C.ar      1 <0>        -0.0369
     24 C19         5.9861    0.1883   -0.6408 C.ar      1 <0>        -0.0369
     25 C20         5.3667    2.9076   -0.5785 C.ar      1 <0>        -0.0600
     26 C21         6.6078    1.0657   -1.5293 C.ar      1 <0>        -0.0600
     27 C22         6.2982    2.4254   -1.4979 C.ar      1 <0>        -0.0616
     28 H1         -2.3219    1.0679   -0.1875 H         1 <0>         0.0466
     29 H2         -5.0400    0.1134   -1.1532 H         1 <0>         0.0281
     30 H3         -3.5493    0.4169   -2.0648 H         1 <0>         0.0281
     31 H4         -4.3158    2.5705   -2.4731 H         1 <0>         0.0278
     32 H5         -5.7675    2.2015   -1.5287 H         1 <0>         0.0278
     33 H6         -3.1945    3.4947   -0.6387 H         1 <0>         0.0426
     34 H7         -4.8516    3.8179   -0.0762 H         1 <0>         0.0426
     35 H8         -4.5346   -0.5855    1.1670 H         1 <0>         0.0329
     36 H9         -2.9454   -0.2921    1.8378 H         1 <0>         0.0329
     37 H10        -3.6092    3.4833    2.2163 H         1 <0>         0.0391
     38 H11        -2.1350    2.8368    1.4691 H         1 <0>         0.0391
     39 H12        -3.0697    1.8644    2.6241 H         1 <0>         0.0391
     40 H13        -4.7323   -2.4089   -0.9310 H         1 <0>         0.0810
     41 H14        -0.4516   -0.7703    1.4908 H         1 <0>         0.0627
     42 H15        -3.1171   -4.1373   -1.7344 H         1 <0>         0.1653
     43 H16         1.7363   -1.4983    2.3132 H         1 <0>         0.0329
     44 H17         2.5952   -2.8240    1.5904 H         1 <0>         0.0329
     45 H18        -0.3961   -4.8167   -1.4494 H         1 <0>         0.0638
     46 H19         1.6709   -4.0657   -0.3068 H         1 <0>         0.0621
     47 H20         2.2446   -0.0617    0.2902 H         1 <0>         0.0507
     48 H21         3.1544   -1.4160   -0.4118 H         1 <0>         0.0507
     49 H22         4.0175    2.4230    1.0136 H         1 <0>         0.0636
     50 H23         6.2345   -0.8675   -0.6864 H         1 <0>         0.0636
     51 H24         5.1242    3.9660   -0.5558 H         1 <0>         0.0618
     52 H25         7.3315    0.6901   -2.2468 H         1 <0>         0.0618
     53 H26         6.7815    3.1086   -2.1903 H         1 <0>         0.0618
@<TRIPOS>BOND
     1    1    2 2
     2    1    3 2
     3    1   21 1
     4    1   22 1
     5    4    6 1
     6    4    9 1
     7    4   12 1
     8    5   14 1
     9    5   15 2
    10    5   42 1
    11    6    7 1
    12    6   10 1
    13    6   28 1
    14    7    8 1
    15    7   29 1
    16    7   30 1
    17    8    9 1
    18    8   31 1
    19    8   32 1
    20    9   33 1
    21    9   34 1
    22   10   11 1
    23   10   35 1
    24   10   36 1
    25   11   13 2
    26   11   14 1
    27   12   37 1
    28   12   38 1
    29   12   39 1
    30   13   15 ar
    31   13   16 ar
    32   14   40 1
    33   15   18 ar
    34   16   17 ar
    35   16   41 1
    36   17   19 1
    37   17   20 ar
    38   18   20 ar
    39   18   45 1
    40   19   21 1
    41   19   43 1
    42   19   44 1
    43   20   46 1
    44   21   47 1
    45   21   48 1
    46   22   23 ar
    47   22   24 ar
    48   23   25 ar
    49   23   49 1
    50   24   26 ar
    51   24   50 1
    52   25   27 ar
    53   25   51 1
    54   26   27 ar
    55   26   52 1
    56   27   53 1
