@<TRIPOS>MOLECULE
DB00619
   68    72     0     0     0
SMALL
USER_CHARGES

@<TRIPOS>ATOM
      1 O1          1.7391   -0.5289   -1.1157 O.2       1 <0>        -0.2699
      2 N1         -5.5486   -0.3344   -0.8419 N.3       1 <0>        -0.2957
      3 N2         -7.6209    0.2771    1.0794 N.3       1 <0>        -0.3029
      4 N3          1.0625    1.6194   -0.4577 N.am      1 <0>        -0.2814
      5 N4          5.9004    1.5481   -0.4239 N.pl3     1 <0>        -0.2833
      6 N5          5.2659   -0.6518    0.0901 N.ar      1 <0>        -0.2142
      7 N6          7.5236   -0.1393   -0.5790 N.ar      1 <0>        -0.2226
      8 N7          3.6227   -5.0646    0.5571 N.ar      1 <0>        -0.2626
      9 C1         -5.2677   -0.3042    0.5987 C.3       1 <0>         0.0120
     10 C2         -6.9468   -0.7115   -1.0831 C.3       1 <0>         0.0120
     11 C3         -6.2224    0.6532    1.3204 C.3       1 <0>         0.0114
     12 C4         -7.9022    0.2449   -0.3610 C.3       1 <0>         0.0114
     13 C5         -4.6386   -1.2484   -1.5293 C.3       1 <0>         0.0241
     14 C6         -8.5301    1.1926    1.7656 C.3       1 <0>        -0.0127
     15 C7         -3.1992   -0.8421   -1.3561 C.ar      1 <0>        -0.0333
     16 C8         -2.8411    0.4896   -1.5107 C.ar      1 <0>        -0.0566
     17 C9         -2.2503   -1.8061   -1.0451 C.ar      1 <0>        -0.0566
     18 C10        -1.5072    0.8653   -1.3513 C.ar      1 <0>        -0.0493
     19 C11        -0.9165   -1.4307   -0.8854 C.ar      1 <0>        -0.0493
     20 C12        -0.5449   -0.0950   -1.0386 C.ar      1 <0>         0.0370
     21 C13         0.8454    0.2973   -0.8705 C.2       1 <0>         0.2483
     22 C14         2.2942    2.2830   -0.2365 C.ar      1 <0>         0.0354
     23 C15         4.6914    2.2493   -0.2195 C.ar      1 <0>         0.0383
     24 C16         3.4788    1.5950   -0.4363 C.ar      1 <0>        -0.0190
     25 C17         4.7010    3.5814    0.1938 C.ar      1 <0>        -0.0291
     26 C18         2.2853    3.6052    0.1734 C.ar      1 <0>        -0.0401
     27 C19         3.4979    4.2595    0.3904 C.ar      1 <0>        -0.0553
     28 C20         5.9852    4.3060    0.4347 C.3       1 <0>        -0.0380
     29 C21         6.2458    0.1899   -0.2986 C.ar      1 <0>         0.2200
     30 C22         5.6318   -1.9457    0.2001 C.ar      1 <0>         0.0775
     31 C23         4.5828   -2.8461    0.6149 C.ar      1 <0>         0.0186
     32 C24         6.9064   -2.4068   -0.0589 C.ar      1 <0>        -0.0174
     33 C25         7.8202   -1.4492   -0.4485 C.ar      1 <0>         0.0332
     34 C26         3.5489   -2.4128    1.4381 C.ar      1 <0>        -0.0497
     35 C27         4.5735   -4.1701    0.2057 C.ar      1 <0>         0.0367
     36 C28         2.5524   -3.3037    1.8214 C.ar      1 <0>        -0.0430
     37 C29         2.6342   -4.6069    1.3578 C.ar      1 <0>         0.0276
     38 H1         -5.3610   -1.3090    1.0342 H         1 <0>         0.0439
     39 H2         -4.2531    0.0454    0.8160 H         1 <0>         0.0439
     40 H3         -7.1626   -0.6673   -2.1575 H         1 <0>         0.0439
     41 H4         -7.1381   -1.7417   -0.7535 H         1 <0>         0.0439
     42 H5         -6.0083    0.6087    2.3952 H         1 <0>         0.0439
     43 H6         -6.0308    1.6835    0.9911 H         1 <0>         0.0439
     44 H7         -7.8191    1.2491   -0.7988 H         1 <0>         0.0439
     45 H8         -8.9292   -0.1008   -0.5304 H         1 <0>         0.0439
     46 H9         -4.7901   -2.2775   -1.1763 H         1 <0>         0.0476
     47 H10        -4.8489   -1.2473   -2.6069 H         1 <0>         0.0476
     48 H11        -9.5707    0.8816    1.6202 H         1 <0>         0.0391
     49 H12        -8.4259    2.2244    1.4112 H         1 <0>         0.0391
     50 H13        -8.3464    1.1789    2.8457 H         1 <0>         0.0391
     51 H14        -3.5713    1.2490   -1.7763 H         1 <0>         0.0621
     52 H15        -2.5271   -2.8495   -0.9230 H         1 <0>         0.0621
     53 H16        -1.2603    1.9090   -1.5211 H         1 <0>         0.0625
     54 H17        -0.1832   -2.1936   -0.6361 H         1 <0>         0.0625
     55 H18         0.2520    2.1944   -0.2450 H         1 <0>         0.1551
     56 H19         3.5058    0.5918   -0.8223 H         1 <0>         0.0655
     57 H20         1.3540    4.1426    0.3289 H         1 <0>         0.0636
     58 H21         3.4872    5.2977    0.7115 H         1 <0>         0.0621
     59 H22         6.7072    2.1322   -0.6175 H         1 <0>         0.1550
     60 H23         6.6076    3.7632    1.1539 H         1 <0>         0.0278
     61 H24         5.8156    5.3054    0.8502 H         1 <0>         0.0278
     62 H25         6.5359    4.4307   -0.5035 H         1 <0>         0.0278
     63 H26         7.2156   -3.4389    0.0460 H         1 <0>         0.0654
     64 H27         8.8486   -1.7152   -0.6684 H         1 <0>         0.0831
     65 H28         3.4967   -1.3902    1.8033 H         1 <0>         0.0625
     66 H29         5.3275   -4.5866   -0.4551 H         1 <0>         0.0836
     67 H30         1.7377   -2.9882    2.4629 H         1 <0>         0.0633
     68 H31         1.8818   -5.3405    1.6278 H         1 <0>         0.0829
@<TRIPOS>BOND
     1    1   21 2
     2    2    9 1
     3    2   10 1
     4    2   13 1
     5    3   11 1
     6    3   12 1
     7    3   14 1
     8    4   21 am
     9    4   22 1
    10    4   55 1
    11    5   23 1
    12    5   29 1
    13    5   59 1
    14    6   29 ar
    15    6   30 ar
    16    7   29 ar
    17    7   33 ar
    18    8   35 ar
    19    8   37 ar
    20    9   11 1
    21    9   38 1
    22    9   39 1
    23   10   12 1
    24   10   40 1
    25   10   41 1
    26   11   42 1
    27   11   43 1
    28   12   44 1
    29   12   45 1
    30   13   15 1
    31   13   46 1
    32   13   47 1
    33   14   48 1
    34   14   49 1
    35   14   50 1
    36   15   16 ar
    37   15   17 ar
    38   16   18 ar
    39   16   51 1
    40   17   19 ar
    41   17   52 1
    42   18   20 ar
    43   18   53 1
    44   19   20 ar
    45   19   54 1
    46   20   21 1
    47   22   24 ar
    48   22   26 ar
    49   23   24 ar
    50   23   25 ar
    51   24   56 1
    52   25   27 ar
    53   25   28 1
    54   26   27 ar
    55   26   57 1
    56   27   58 1
    57   28   60 1
    58   28   61 1
    59   28   62 1
    60   30   31 1
    61   30   32 ar
    62   31   34 ar
    63   31   35 ar
    64   32   33 ar
    65   32   63 1
    66   33   64 1
    67   34   36 ar
    68   34   65 1
    69   35   66 1
    70   36   37 ar
    71   36   67 1
    72   37   68 1
