@<TRIPOS>MOLECULE
DB00884
   28    28     0     0     0
SMALL
USER_CHARGES

@<TRIPOS>ATOM
      1 P1          0.9772    1.4995    0.4997 P.3       1 <0>         0.3713
      2 P2          2.5337   -1.2331   -0.0764 P.3       1 <0>         0.3713
      3 O1          0.6477   -0.8111    1.5744 O.3       1 <0>        -0.3669
      4 O2          1.4836    2.0492   -0.9335 O.3       1 <0>        -0.3217
      5 O3          2.2498    1.7622    1.4608 O.3       1 <0>        -0.3217
      6 O4          2.9493   -0.6929   -1.5420 O.3       1 <0>        -0.3217
      7 O5          3.6220   -0.5434    0.8988 O.3       1 <0>        -0.3217
      8 O6         -0.3074    2.0939    0.9961 O.2       1 <0>        -0.2551
      9 O7          2.4249   -2.7240    0.0489 O.2       1 <0>        -0.2551
     10 N1         -3.2809    1.1996   -0.8316 N.ar      1 <0>        -0.2630
     11 C1          0.9687   -0.3121    0.2753 C.3       1 <0>         0.2711
     12 C2         -0.0910   -0.8049   -0.7431 C.3       1 <0>         0.0258
     13 C3         -1.5203   -0.3949   -0.4899 C.ar      1 <0>        -0.0253
     14 C4         -2.3463   -1.1894    0.2783 C.ar      1 <0>        -0.0556
     15 C5         -2.0117    0.7743   -1.0210 C.ar      1 <0>         0.0308
     16 C6         -3.6589   -0.7853    0.4957 C.ar      1 <0>        -0.0433
     17 C7         -4.0736    0.4067   -0.0763 C.ar      1 <0>         0.0276
     18 H1          0.1990   -0.4659   -1.7460 H         1 <0>         0.0354
     19 H2         -0.0638   -1.9017   -0.7909 H         1 <0>         0.0354
     20 H3         -0.1528   -0.3548    1.8837 H         1 <0>         0.2117
     21 H4         -1.9912   -2.1183    0.7147 H         1 <0>         0.0621
     22 H5         -1.4022    1.4271   -1.6371 H         1 <0>         0.0832
     23 H6          1.5403    3.0176   -1.0775 H         1 <0>         0.2198
     24 H7          2.4447    2.6786    1.7508 H         1 <0>         0.2198
     25 H8          3.7439   -1.0676   -1.9784 H         1 <0>         0.2198
     26 H9          4.5389   -0.8913    0.9087 H         1 <0>         0.2198
     27 H10        -4.3359   -1.3841    1.0942 H         1 <0>         0.0633
     28 H11        -5.0876    0.7664    0.0634 H         1 <0>         0.0829
@<TRIPOS>BOND
     1    1    4 1
     2    1    5 1
     3    1    8 2
     4    1   11 1
     5    2    6 1
     6    2    7 1
     7    2    9 2
     8    2   11 1
     9    3   11 1
    10    3   20 1
    11    4   23 1
    12    5   24 1
    13    6   25 1
    14    7   26 1
    15   10   15 ar
    16   10   17 ar
    17   11   12 1
    18   12   13 1
    19   12   18 1
    20   12   19 1
    21   13   14 ar
    22   13   15 ar
    23   14   16 ar
    24   14   21 1
    25   15   22 1
    26   16   17 ar
    27   16   27 1
    28   17   28 1
