@<TRIPOS>MOLECULE
DB00131
   37    39     0     0     0
SMALL
USER_CHARGES

@<TRIPOS>ATOM
      1 P1         -4.0971   -2.0815    0.5428 P.3       1 <0>         0.4724
      2 O1         -0.8055    0.6384    1.1721 O.3       1 <0>        -0.3456
      3 O2          0.6860    2.6910   -1.3741 O.3       1 <0>        -0.3847
      4 O3         -1.3132    3.5083    0.2753 O.3       1 <0>        -0.3864
      5 O4         -3.2044   -0.7989    0.9669 O.3       1 <0>        -0.2841
      6 O5         -3.2506   -2.7582   -0.6575 O.3       1 <0>        -0.3026
      7 O6         -5.3543   -1.4102   -0.2211 O.3       1 <0>        -0.3026
      8 O7         -4.4591   -3.0025    1.6710 O.2       1 <0>        -0.2275
      9 N1          1.3111    0.0450    0.2786 N.pl3     1 <0>        -0.2855
     10 N2          2.0963   -2.0210   -0.0271 N.2       1 <0>        -0.2306
     11 N3          3.4046    1.2736    0.3770 N.2       1 <0>        -0.2159
     12 N4          5.3209   -0.2144    0.1121 N.2       1 <0>        -0.2188
     13 N5          5.0809   -2.5746   -0.2026 N.pl3     1 <0>        -0.3413
     14 C1         -0.1815    1.7083   -0.8465 C.3       1 <0>         0.1285
     15 C2         -1.5187    2.2712   -0.4068 C.3       1 <0>         0.1135
     16 C3          0.3454    1.1270    0.4566 C.3       1 <0>         0.1667
     17 C4         -1.9956    1.2281    0.5991 C.3       1 <0>         0.1134
     18 C5         -2.8201    0.1200   -0.0407 C.3       1 <0>         0.0878
     19 C6          2.6731    0.1564    0.2490 C.2       1 <0>         0.1674
     20 C7          1.0146   -1.2827    0.1089 C.cat     1 <0>         0.1004
     21 C8          3.1401   -1.1343    0.0583 C.2       1 <0>         0.1473
     22 C9          4.5198   -1.3003   -0.0096 C.2       1 <0>         0.1472
     23 C10         4.7222    0.9874    0.2951 C.2       1 <0>         0.1205
     24 H1         -0.3263    0.9268   -1.6014 H         1 <0>         0.0665
     25 H2         -2.2063    2.4565   -1.2369 H         1 <0>         0.0647
     26 H3          0.8308    1.8847    1.0841 H         1 <0>         0.0866
     27 H4         -2.5541    1.6752    1.4293 H         1 <0>         0.0647
     28 H5         -2.2329   -0.4146   -0.7937 H         1 <0>         0.0592
     29 H6         -3.7128    0.5400   -0.5142 H         1 <0>         0.0592
     30 H7          0.7663    3.4045   -0.7184 H         1 <0>         0.2101
     31 H8         -2.1823    3.8170    0.5836 H         1 <0>         0.2100
     32 H9         -0.0004   -1.6558    0.0871 H         1 <0>         0.1030
     33 H10         5.3935    1.8344    0.3883 H         1 <0>         0.1048
     34 H11         4.4854   -3.3865   -0.2941 H         1 <0>         0.1438
     35 H12         6.0863   -2.6693   -0.2492 H         1 <0>         0.1438
     36 H13        -3.5628   -3.6063   -1.0389 H         1 <0>         0.2220
     37 H14        -6.0995   -1.9826   -0.5024 H         1 <0>         0.2220
@<TRIPOS>BOND
     1    1    5 1
     2    1    6 1
     3    1    7 1
     4    1    8 2
     5    2   16 1
     6    2   17 1
     7    3   14 1
     8    3   30 1
     9    4   15 1
    10    4   31 1
    11    5   18 1
    12    6   36 1
    13    7   37 1
    14    9   16 1
    15    9   19 1
    16    9   20 2
    17   10   20 1
    18   10   21 2
    19   11   19 2
    20   11   23 1
    21   12   22 1
    22   12   23 2
    23   13   22 1
    24   13   34 1
    25   13   35 1
    26   14   15 1
    27   14   16 1
    28   14   24 1
    29   15   17 1
    30   15   25 1
    31   16   26 1
    32   17   18 1
    33   17   27 1
    34   18   28 1
    35   18   29 1
    36   19   21 1
    37   20   32 1
    38   21   22 2
    39   23   33 1
