@<TRIPOS>MOLECULE
DB00479
   83    85     0     0     0
SMALL
USER_CHARGES

@<TRIPOS>ATOM
      1 O1          0.7159    1.6257   -0.0863 O.3       1 <0>        -0.3410
      2 O2          0.8665   -1.2441   -0.0972 O.3       1 <0>        -0.3413
      3 O3         -1.5398    0.0337    2.3104 O.3       1 <0>        -0.3865
      4 O4          1.6303    3.5844    0.8835 O.3       1 <0>        -0.3406
      5 O5          1.4149   -3.1962    1.1311 O.3       1 <0>        -0.3415
      6 O6          1.0862    2.6949   -2.6179 O.3       1 <0>        -0.3851
      7 O7          3.5958   -0.6653   -0.4000 O.3       1 <0>        -0.3841
      8 O8          5.0728    2.5283    0.1061 O.3       1 <0>        -0.3875
      9 O9          4.6035   -3.1489   -1.4920 O.3       1 <0>        -0.3864
     10 O10         2.5291   -5.1095   -1.8161 O.3       1 <0>        -0.3865
     11 O11        -3.8652    2.6638   -1.7430 O.2       1 <0>        -0.2730
     12 O12         2.5673    3.4427    3.4412 O.3       1 <0>        -0.3924
     13 O13        -6.2313    2.9712   -0.5365 O.3       1 <0>        -0.3825
     14 N1         -2.9382    1.5479    0.0688 N.am      1 <0>        -0.3077
     15 N2         -2.8147   -1.5044    0.1171 N.3       1 <0>        -0.3250
     16 N3          4.0152    3.0801   -2.5379 N.3       1 <0>        -0.3229
     17 N4         -0.5020   -5.2470    1.2553 N.3       1 <0>        -0.3276
     18 N5         -6.6341   -1.2930   -0.2639 N.3       1 <0>        -0.3299
     19 C1         -0.5303    1.3908    0.5710 C.3       1 <0>         0.1083
     20 C2         -0.4025   -1.1712    0.5557 C.3       1 <0>         0.1052
     21 C3         -1.6282    1.3435   -0.5026 C.3       1 <0>         0.0535
     22 C4         -0.4374    0.1053    1.4107 C.3       1 <0>         0.1107
     23 C5         -1.5176   -1.2361   -0.5050 C.3       1 <0>         0.0358
     24 C6         -1.5698    0.0560   -1.3386 C.3       1 <0>        -0.0142
     25 C7          0.9600    3.0223   -0.2449 C.3       1 <0>         0.1874
     26 C8          1.8344   -1.8914    0.7266 C.3       1 <0>         0.1883
     27 C9          1.7720    3.2794   -1.5161 C.3       1 <0>         0.1234
     28 C10         3.1894    2.7067   -1.3834 C.3       1 <0>         0.0647
     29 C11         3.2158   -1.9528    0.0727 C.3       1 <0>         0.1341
     30 C12         3.8463    3.2268   -0.0940 C.3       1 <0>         0.1012
     31 C13         3.2477   -2.9471   -1.0863 C.3       1 <0>         0.1140
     32 C14         2.9236    3.0160    1.1173 C.3       1 <0>         0.1120
     33 C15         2.6705   -4.2965   -0.6536 C.3       1 <0>         0.1109
     34 C16         1.3143   -4.1221    0.0431 C.3       1 <0>         0.1023
     35 C17        -3.9561    2.1984   -0.6090 C.2       1 <0>         0.2420
     36 C18         3.4759    3.6724    2.3800 C.3       1 <0>         0.0730
     37 C19         0.7946   -5.4351    0.6222 C.3       1 <0>         0.0222
     38 C20        -5.2477    2.2621    0.1983 C.3       1 <0>         0.1320
     39 C21        -5.7880    0.8725    0.5569 C.3       1 <0>        -0.0059
     40 C22        -6.1116    0.0091   -0.6680 C.3       1 <0>        -0.0041
     41 H1         -0.7414    2.2138    1.2699 H         1 <0>         0.0642
     42 H2         -0.5490   -2.0367    1.2139 H         1 <0>         0.0639
     43 H3         -1.4719    2.1648   -1.2119 H         1 <0>         0.0525
     44 H4          0.4663    0.1786    2.0247 H         1 <0>         0.0646
     45 H5         -1.3011   -2.0629   -1.1931 H         1 <0>         0.0485
     46 H6         -0.6680    0.0924   -1.9649 H         1 <0>         0.0300
     47 H7         -2.4159    0.0163   -2.0372 H         1 <0>         0.0300
     48 H8          0.0122    3.5639   -0.3531 H         1 <0>         0.0937
     49 H9          1.9475   -1.2992    1.6412 H         1 <0>         0.0938
     50 H10        -3.1138    1.1723    0.9957 H         1 <0>         0.1491
     51 H11         1.8393    4.3618   -1.6880 H         1 <0>         0.0660
     52 H12         3.1433    1.6136   -1.3794 H         1 <0>         0.0512
     53 H13         3.9590   -2.2606    0.8194 H         1 <0>         0.0671
     54 H14        -2.7779   -2.3891    0.6216 H         1 <0>         0.1185
     55 H15        -3.5233   -1.6171   -0.6062 H         1 <0>         0.1185
     56 H16         4.0744    4.2950   -0.2002 H         1 <0>         0.0636
     57 H17         2.7203   -2.5479   -1.9605 H         1 <0>         0.0648
     58 H18         2.7989    1.9462    1.3296 H         1 <0>         0.0646
     59 H19        -1.4151   -0.7530    2.8679 H         1 <0>         0.2100
     60 H20         3.3782   -4.8025    0.0144 H         1 <0>         0.0646
     61 H21         0.5738   -3.7541   -0.6798 H         1 <0>         0.0636
     62 H22         4.4510    3.2572    2.6522 H         1 <0>         0.0584
     63 H23         3.5675    4.7556    2.2476 H         1 <0>         0.0584
     64 H24         0.7007   -6.1922   -0.1631 H         1 <0>         0.0448
     65 H25         1.4929   -5.8163    1.3764 H         1 <0>         0.0448
     66 H26         4.9349    2.6494   -2.4521 H         1 <0>         0.1186
     67 H27         3.5979    2.7064   -3.3893 H         1 <0>         0.1186
     68 H28        -5.0395    2.8289    1.1134 H         1 <0>         0.0690
     69 H29         0.2138    3.1196   -2.6800 H         1 <0>         0.2101
     70 H30         3.5432   -0.0568    0.3559 H         1 <0>         0.2101
     71 H31         4.8690    1.5847    0.2166 H         1 <0>         0.2100
     72 H32         5.1002   -3.4925   -0.7299 H         1 <0>         0.2100
     73 H33         1.8783   -4.6860   -2.4015 H         1 <0>         0.2100
     74 H34        -6.7106    1.0008    1.1388 H         1 <0>         0.0307
     75 H35        -5.0815    0.3422    1.2058 H         1 <0>         0.0307
     76 H36        -0.4232   -4.5578    2.0021 H         1 <0>         0.1183
     77 H37        -0.7941   -6.1173    1.6976 H         1 <0>         0.1183
     78 H38         2.9363    3.8705    4.2327 H         1 <0>         0.2095
     79 H39        -6.9898    3.1183    0.0540 H         1 <0>         0.2104
     80 H40        -5.2203   -0.1410   -1.2850 H         1 <0>         0.0423
     81 H41        -6.8622    0.5061   -1.2914 H         1 <0>         0.0423
     82 H42        -6.7932   -1.8646   -1.0926 H         1 <0>         0.1182
     83 H43        -5.9349   -1.7843    0.2919 H         1 <0>         0.1182
@<TRIPOS>BOND
     1    1   19 1
     2    1   25 1
     3    2   20 1
     4    2   26 1
     5    3   22 1
     6    3   59 1
     7    4   25 1
     8    4   32 1
     9    5   26 1
    10    5   34 1
    11    6   27 1
    12    6   69 1
    13    7   29 1
    14    7   70 1
    15    8   30 1
    16    8   71 1
    17    9   31 1
    18    9   72 1
    19   10   33 1
    20   10   73 1
    21   11   35 2
    22   12   36 1
    23   12   78 1
    24   13   38 1
    25   13   79 1
    26   14   21 1
    27   14   35 am
    28   14   50 1
    29   15   23 1
    30   15   54 1
    31   15   55 1
    32   16   28 1
    33   16   66 1
    34   16   67 1
    35   17   37 1
    36   17   76 1
    37   17   77 1
    38   18   40 1
    39   18   82 1
    40   18   83 1
    41   19   21 1
    42   19   22 1
    43   19   41 1
    44   20   22 1
    45   20   23 1
    46   20   42 1
    47   21   24 1
    48   21   43 1
    49   22   44 1
    50   23   24 1
    51   23   45 1
    52   24   46 1
    53   24   47 1
    54   25   27 1
    55   25   48 1
    56   26   29 1
    57   26   49 1
    58   27   28 1
    59   27   51 1
    60   28   30 1
    61   28   52 1
    62   29   31 1
    63   29   53 1
    64   30   32 1
    65   30   56 1
    66   31   33 1
    67   31   57 1
    68   32   36 1
    69   32   58 1
    70   33   34 1
    71   33   60 1
    72   34   37 1
    73   34   61 1
    74   35   38 1
    75   36   62 1
    76   36   63 1
    77   37   64 1
    78   37   65 1
    79   38   39 1
    80   38   68 1
    81   39   40 1
    82   39   74 1
    83   39   75 1
    84   40   80 1
    85   40   81 1
