@<TRIPOS>MOLECULE
DB00393
   56    57     0     0     0
SMALL
USER_CHARGES

@<TRIPOS>ATOM
      1 O1         -3.4493   -0.3161    0.5425 O.3       1 <0>        -0.4586
      2 O2          2.4142    0.8563    1.2418 O.3       1 <0>        -0.4590
      3 O3         -3.2792   -0.4052   -1.7646 O.2       1 <0>        -0.2452
      4 O4          1.0757    1.4882    3.0218 O.2       1 <0>        -0.2452
      5 O5          4.2794   -1.1413    0.6179 O.3       1 <0>        -0.3796
      6 O6          2.6935   -2.2490   -3.7995 O.3       1 <0>        -0.5760
      7 O7          2.0378   -0.1540   -3.8040 O.2       1 <0>         0.0414
      8 N1         -0.8082    3.0702   -0.7133 N.pl3     1 <0>        -0.3207
      9 N2          2.0791   -1.2901   -3.2727 N.pl3     1 <0>         0.0796
     10 C1         -0.6778    0.4812    0.4330 C.3       1 <0>         0.0508
     11 C2         -1.8239    0.9461   -0.4710 C.2       1 <0>         0.0652
     12 C3          0.2959    1.6099    0.7870 C.2       1 <0>         0.0652
     13 C4          0.0638   -0.6499   -0.2190 C.ar      1 <0>        -0.0287
     14 C5         -1.8295    2.1839   -1.0152 C.2       1 <0>         0.0157
     15 C6          0.2091    2.8223    0.1942 C.2       1 <0>         0.0157
     16 C7         -2.9313   -0.0030   -0.6698 C.2       1 <0>         0.3378
     17 C8          0.7207   -0.4462   -1.4327 C.ar      1 <0>         0.0197
     18 C9          1.2879    1.3201    1.8352 C.2       1 <0>         0.3376
     19 C10         0.0962   -1.9046    0.3893 C.ar      1 <0>        -0.0572
     20 C11        -2.8780    2.7183   -1.9533 C.3       1 <0>        -0.0260
     21 C12         1.1419    3.9788    0.4331 C.3       1 <0>        -0.0260
     22 C13         1.4099   -1.4970   -2.0376 C.ar      1 <0>         0.2734
     23 C14         0.7854   -2.9556   -0.2156 C.ar      1 <0>        -0.0551
     24 C15        -4.5438   -1.2379    0.5149 C.3       1 <0>         0.0978
     25 C16         1.4423   -2.7518   -1.4291 C.ar      1 <0>         0.0156
     26 C17         3.4805    0.5266    2.1378 C.3       1 <0>         0.1160
     27 C18        -4.0038   -2.6583    0.5825 C.3       1 <0>        -0.0280
     28 C19        -5.4842   -0.9336    1.6711 C.3       1 <0>        -0.0280
     29 C20         4.6650    0.0254    1.3343 C.3       1 <0>         0.0815
     30 C21         5.3478   -1.6436   -0.1727 C.3       1 <0>         0.0366
     31 H1         -1.1169    0.1476    1.3839 H         1 <0>         0.0451
     32 H2         -0.8413    3.9885   -1.1418 H         1 <0>         0.1516
     33 H3          0.6904    0.5353   -1.8990 H         1 <0>         0.0688
     34 H4         -0.4111   -2.0791    1.3343 H         1 <0>         0.0621
     35 H5         -3.2397    3.6906   -1.6006 H         1 <0>         0.0290
     36 H6         -3.7536    2.0711   -2.0429 H         1 <0>         0.0290
     37 H7         -2.4532    2.8531   -2.9536 H         1 <0>         0.0290
     38 H8          1.6215    4.2770   -0.5055 H         1 <0>         0.0290
     39 H9          1.9365    3.7462    1.1477 H         1 <0>         0.0290
     40 H10         0.5864    4.8376    0.8249 H         1 <0>         0.0290
     41 H11         0.8105   -3.9323    0.2588 H         1 <0>         0.0620
     42 H12        -5.1233   -1.1175   -0.4096 H         1 <0>         0.0728
     43 H13         1.9701   -3.5932   -1.8706 H         1 <0>         0.0685
     44 H14         3.1340   -0.2598    2.8184 H         1 <0>         0.0721
     45 H15         3.7665    1.4149    2.7119 H         1 <0>         0.0721
     46 H16        -3.3999   -2.8031    1.4851 H         1 <0>         0.0265
     47 H17        -4.8152   -3.3926    0.5824 H         1 <0>         0.0265
     48 H18        -3.3485   -2.8676   -0.2696 H         1 <0>         0.0265
     49 H19        -5.8541    0.0950    1.6003 H         1 <0>         0.0265
     50 H20        -6.3411   -1.6139    1.6794 H         1 <0>         0.0265
     51 H21        -4.9619   -1.0141    2.6308 H         1 <0>         0.0265
     52 H22         4.9773    0.7942    0.6181 H         1 <0>         0.0593
     53 H23         5.4996   -0.2084    2.0042 H         1 <0>         0.0593
     54 H24         5.6543   -0.9033   -0.9181 H         1 <0>         0.0524
     55 H25         6.1978   -1.9178    0.4596 H         1 <0>         0.0524
     56 H26         4.9978   -2.5383   -0.6947 H         1 <0>         0.0524
@<TRIPOS>BOND
     1    1   16 1
     2    1   24 1
     3    2   18 1
     4    2   26 1
     5    3   16 2
     6    4   18 2
     7    5   29 1
     8    5   30 1
     9    6    9 1
    10    7    9 2
    11    8   14 1
    12    8   15 1
    13    8   32 1
    14    9   22 1
    15   10   11 1
    16   10   12 1
    17   10   13 1
    18   10   31 1
    19   11   14 2
    20   11   16 1
    21   12   15 2
    22   12   18 1
    23   13   17 ar
    24   13   19 ar
    25   14   20 1
    26   15   21 1
    27   17   22 ar
    28   17   33 1
    29   19   23 ar
    30   19   34 1
    31   20   35 1
    32   20   36 1
    33   20   37 1
    34   21   38 1
    35   21   39 1
    36   21   40 1
    37   22   25 ar
    38   23   25 ar
    39   23   41 1
    40   24   27 1
    41   24   28 1
    42   24   42 1
    43   25   43 1
    44   26   29 1
    45   26   44 1
    46   26   45 1
    47   27   46 1
    48   27   47 1
    49   27   48 1
    50   28   49 1
    51   28   50 1
    52   28   51 1
    53   29   52 1
    54   29   53 1
    55   30   54 1
    56   30   55 1
    57   30   56 1
