@<TRIPOS>MOLECULE
DB00881
   62    64     0     0     0
SMALL
USER_CHARGES

@<TRIPOS>ATOM
      1 O1         -0.6594   -2.6666    0.1778 O.2       1 <0>        -0.2694
      2 O2          1.4430    2.5097   -0.1094 O.3       1 <0>        -0.4610
      3 O3          1.0529    1.6541   -2.2128 O.2       1 <0>        -0.2444
      4 O4         -3.9314   -3.4750   -0.9185 O.co2     1 <0>        -0.5479
      5 O5         -5.3332   -3.3790    0.8871 O.co2     1 <0>        -0.5479
      6 N1          0.8367   -0.9168   -1.2357 N.4       1 <0>         0.2457
      7 N2         -2.5604   -1.3303   -0.0017 N.am      1 <0>        -0.2840
      8 C1         -0.6190   -0.9836   -1.4940 C.3       1 <0>         0.0531
      9 C2         -3.3286   -2.1540    0.9360 C.3       1 <0>         0.0699
     10 C3          1.2494    0.1681   -0.3017 C.3       1 <0>         0.0770
     11 C4         -3.2618   -0.2246   -0.6734 C.3       1 <0>         0.0408
     12 C5         -4.1056   -1.3063    1.9396 C.3       1 <0>        -0.0034
     13 C6         -1.2725   -1.7444   -0.3656 C.2       1 <0>         0.2643
     14 C7         -4.4766    0.3088    0.0401 C.ar      1 <0>        -0.0268
     15 C8         -4.8916   -0.2084    1.2760 C.ar      1 <0>        -0.0406
     16 C9          2.5826   -0.1971    0.3671 C.3       1 <0>         0.0048
     17 C10        -0.8659   -1.6758   -2.8140 C.3       1 <0>        -0.0129
     18 C11         3.8203   -0.2925   -0.5402 C.3       1 <0>        -0.0220
     19 C12         1.2445    1.5051   -1.0126 C.2       1 <0>         0.3560
     20 C13        -4.2922   -3.0961    0.2302 C.2       1 <0>         0.0625
     21 C14        -5.2097    1.3498   -0.5492 C.ar      1 <0>        -0.0568
     22 C15        -6.0141    0.3354    1.9159 C.ar      1 <0>        -0.0582
     23 C16         5.1042   -0.6352    0.1701 C.ar      1 <0>        -0.0471
     24 C17        -6.3338    1.8759    0.0870 C.ar      1 <0>        -0.0614
     25 C18        -6.7343    1.3703    1.3206 C.ar      1 <0>        -0.0615
     26 C19         5.9160    0.3817    0.6728 C.ar      1 <0>        -0.0586
     27 C20         5.4810   -1.9692    0.3255 C.ar      1 <0>        -0.0586
     28 C21         1.4186    3.8365   -0.6453 C.3       1 <0>         0.0899
     29 C22         7.1047    0.0647    1.3304 C.ar      1 <0>        -0.0615
     30 C23         6.6695   -2.2863    0.9832 C.ar      1 <0>        -0.0615
     31 C24         7.4812   -1.2693    1.4856 C.ar      1 <0>        -0.0617
     32 C25         1.6525    4.8257    0.4763 C.3       1 <0>        -0.0306
     33 H1         -0.9499    0.0473   -1.5836 H         1 <0>         0.0947
     34 H2          1.1562   -1.8298   -0.8812 H         1 <0>         0.2030
     35 H3          1.3445   -0.7879   -2.1227 H         1 <0>         0.2030
     36 H4         -2.6422   -2.8010    1.4967 H         1 <0>         0.0565
     37 H5          0.4792    0.2080    0.4791 H         1 <0>         0.0969
     38 H6         -3.5463   -0.5754   -1.6714 H         1 <0>         0.0514
     39 H7         -2.5773    0.6214   -0.7703 H         1 <0>         0.0514
     40 H8         -3.3820   -0.8121    2.6032 H         1 <0>         0.0335
     41 H9         -4.7462   -1.9078    2.5951 H         1 <0>         0.0335
     42 H10         2.4611   -1.1497    0.9009 H         1 <0>         0.0329
     43 H11         2.7911    0.5482    1.1467 H         1 <0>         0.0329
     44 H12        -0.4733   -2.6992   -2.8103 H         1 <0>         0.0289
     45 H13        -1.9364   -1.7423   -3.0337 H         1 <0>         0.0289
     46 H14        -0.3898   -1.1362   -3.6399 H         1 <0>         0.0289
     47 H15         3.9561    0.6573   -1.0737 H         1 <0>         0.0315
     48 H16         3.6431   -1.0391   -1.3249 H         1 <0>         0.0315
     49 H17        -4.9039    1.7582   -1.5094 H         1 <0>         0.0621
     50 H18        -6.3342   -0.0465    2.8820 H         1 <0>         0.0620
     51 H19        -6.8932    2.6823   -0.3779 H         1 <0>         0.0618
     52 H20        -7.6058    1.7829    1.8202 H         1 <0>         0.0618
     53 H21         5.6319    1.4246    0.5600 H         1 <0>         0.0620
     54 H22         4.8557   -2.7703   -0.0596 H         1 <0>         0.0620
     55 H23         2.2063    3.9395   -1.3999 H         1 <0>         0.0694
     56 H24         0.4436    4.0253   -1.1083 H         1 <0>         0.0694
     57 H25         7.7365    0.8564    1.7222 H         1 <0>         0.0618
     58 H26         6.9625   -3.3250    1.1047 H         1 <0>         0.0618
     59 H27         8.4065   -1.5162    1.9979 H         1 <0>         0.0618
     60 H28         0.8826    4.7222    1.2482 H         1 <0>         0.0262
     61 H29         2.6160    4.6372    0.9614 H         1 <0>         0.0262
     62 H30         1.6408    5.8528    0.1011 H         1 <0>         0.0262
@<TRIPOS>BOND
     1    1   13 2
     2    2   19 1
     3    2   28 1
     4    3   19 2
     5    4   20 2
     6    5   20 1
     7    6    8 1
     8    6   10 1
     9    6   34 1
    10    6   35 1
    11    7    9 1
    12    7   11 1
    13    7   13 am
    14    8   13 1
    15    8   17 1
    16    8   33 1
    17    9   12 1
    18    9   20 1
    19    9   36 1
    20   10   16 1
    21   10   19 1
    22   10   37 1
    23   11   14 1
    24   11   38 1
    25   11   39 1
    26   12   15 1
    27   12   40 1
    28   12   41 1
    29   14   15 ar
    30   14   21 ar
    31   15   22 ar
    32   16   18 1
    33   16   42 1
    34   16   43 1
    35   17   44 1
    36   17   45 1
    37   17   46 1
    38   18   23 1
    39   18   47 1
    40   18   48 1
    41   21   24 ar
    42   21   49 1
    43   22   25 ar
    44   22   50 1
    45   23   26 ar
    46   23   27 ar
    47   24   25 ar
    48   24   51 1
    49   25   52 1
    50   26   29 ar
    51   26   53 1
    52   27   30 ar
    53   27   54 1
    54   28   32 1
    55   28   55 1
    56   28   56 1
    57   29   31 ar
    58   29   57 1
    59   30   31 ar
    60   30   58 1
    61   31   59 1
    62   32   60 1
    63   32   61 1
    64   32   62 1
