@<TRIPOS>MOLECULE
DB00669
   41    42     0     0     0
SMALL
USER_CHARGES

@<TRIPOS>ATOM
      1 S1         -3.2098   -1.0160   -0.7870 S.o2      1 <0>         0.0332
      2 O1         -3.8159   -0.1089   -1.7491 O.2       1 <0>        -0.1579
      3 O2         -1.9888   -1.7305   -1.1259 O.2       1 <0>        -0.1579
      4 N1          1.0678    3.6877   -0.2800 N.pl3     1 <0>        -0.3604
      5 N2          4.0507   -1.3461   -0.0144 N.3       1 <0>        -0.3080
      6 N3         -4.3718   -2.1611   -0.2746 N.pl3     1 <0>        -0.1973
      7 C1          1.8217    1.7063    0.3775 C.2       1 <0>        -0.0211
      8 C2          0.4010    1.6463    0.3241 C.2       1 <0>         0.0032
      9 C3          2.7342    0.6116    0.7659 C.3       1 <0>        -0.0129
     10 C4         -0.0469    2.9021   -0.0911 C.2       1 <0>         0.0467
     11 C5         -1.9103    0.9287    0.4310 C.2       1 <0>        -0.0243
     12 C6          3.1739   -0.2556   -0.4278 C.3       1 <0>         0.0024
     13 C7         -0.5498    0.6409    0.5899 C.2       1 <0>        -0.0475
     14 C8          2.2018    2.9739    0.0009 C.2       1 <0>         0.0059
     15 C9         -2.9234   -0.1314    0.7112 C.3       1 <0>         0.1067
     16 C10        -1.4036    3.2042   -0.2544 C.2       1 <0>        -0.0375
     17 C11        -2.3283    2.1913    0.0151 C.2       1 <0>        -0.0550
     18 C12         4.4141   -2.1777   -1.1629 C.3       1 <0>        -0.0130
     19 C13         3.4082   -2.1595    1.0190 C.3       1 <0>        -0.0130
     20 C14        -5.7902   -1.7642   -0.2190 C.3       1 <0>         0.0055
     21 H1          3.6223    1.0297    1.2583 H         1 <0>         0.0326
     22 H2          2.2145    0.0185    1.5262 H         1 <0>         0.0326
     23 H3          3.7011    0.3827   -1.1490 H         1 <0>         0.0429
     24 H4          2.2838   -0.6433   -0.9429 H         1 <0>         0.0429
     25 H5         -0.2270   -0.3449    0.9135 H         1 <0>         0.0627
     26 H6          3.1760    3.4331   -0.0935 H         1 <0>         0.0810
     27 H7         -3.8680    0.3037    1.0516 H         1 <0>         0.0565
     28 H8         -2.5688   -0.8341    1.4718 H         1 <0>         0.0565
     29 H9          1.0505    4.6519   -0.5823 H         1 <0>         0.1653
     30 H10        -1.7298    4.1870   -0.5779 H         1 <0>         0.0638
     31 H11        -3.3875    2.4076   -0.1054 H         1 <0>         0.0621
     32 H12         4.9153   -1.5767   -1.9299 H         1 <0>         0.0391
     33 H13         3.5412   -2.6599   -1.6177 H         1 <0>         0.0391
     34 H14         5.1236   -2.9578   -0.8649 H         1 <0>         0.0391
     35 H15         3.9906   -3.0707    1.2036 H         1 <0>         0.0391
     36 H16         2.3932   -2.4672    0.7420 H         1 <0>         0.0391
     37 H17         3.3840   -1.6452    1.9847 H         1 <0>         0.0391
     38 H18        -4.0853   -2.8173    0.4633 H         1 <0>         0.1473
     39 H19        -6.4021   -2.6621   -0.0938 H         1 <0>         0.0405
     40 H20        -6.0990   -1.2697   -1.1430 H         1 <0>         0.0405
     41 H21        -5.9633   -1.1073    0.6369 H         1 <0>         0.0405
@<TRIPOS>BOND
     1    1    2 2
     2    1    3 2
     3    1    6 1
     4    1   15 1
     5    4   10 1
     6    4   14 2
     7    4   29 1
     8    5   12 1
     9    5   18 1
    10    5   19 1
    11    6   20 1
    12    6   38 1
    13    7    8 2
    14    7    9 1
    15    7   14 1
    16    8   10 1
    17    8   13 2
    18    9   12 1
    19    9   21 1
    20    9   22 1
    21   10   16 2
    22   11   13 1
    23   11   15 1
    24   11   17 2
    25   12   23 1
    26   12   24 1
    27   13   25 1
    28   14   26 1
    29   15   27 1
    30   15   28 1
    31   16   17 1
    32   16   30 1
    33   17   31 1
    34   18   32 1
    35   18   33 1
    36   18   34 1
    37   19   35 1
    38   19   36 1
    39   19   37 1
    40   20   39 1
    41   20   40 1
    42   20   41 1
