@<TRIPOS>MOLECULE
DB00482
   40    42     0     0     0
SMALL
USER_CHARGES

@<TRIPOS>ATOM
      1 S1         -4.7541   -0.9766   -0.4359 S.o2      1 <0>         0.0559
      2 F1          3.5938    4.9317    0.3366 F         1 <0>        -0.1644
      3 F2          1.8703    5.5726   -0.8232 F         1 <0>        -0.1644
      4 F3          1.7317    5.4432    1.3485 F         1 <0>        -0.1644
      5 O1         -5.4726   -0.4297   -1.5783 O.2       1 <0>        -0.1533
      6 O2         -4.5210   -2.4115   -0.3475 O.2       1 <0>        -0.1533
      7 N1          0.4517    1.8043    0.0030 N.pl3     1 <0>        -0.2316
      8 N2          0.4809    3.1464    0.0673 N.2       1 <0>        -0.1618
      9 N3         -5.5222   -0.4567    0.9988 N.pl3     1 <0>        -0.2035
     10 C1          1.6853    1.2208    0.0491 C.2       1 <0>         0.0752
     11 C2         -0.7764    1.1484   -0.1004 C.ar      1 <0>         0.0661
     12 C3          1.9218   -0.2013   -0.0030 C.ar      1 <0>         0.0005
     13 C4          2.5835    2.2572    0.1503 C.2       1 <0>        -0.0039
     14 C5          1.7857    3.4173    0.1572 C.2       1 <0>         0.1662
     15 C6         -0.9201   -0.1232    0.4376 C.ar      1 <0>        -0.0344
     16 C7         -1.8358    1.7771   -0.7403 C.ar      1 <0>        -0.0344
     17 C8         -3.2182   -0.1564   -0.3071 C.ar      1 <0>         0.1051
     18 C9          1.9650   -0.9447    1.1765 C.ar      1 <0>        -0.0523
     19 C10         2.1074   -0.8330   -1.2327 C.ar      1 <0>        -0.0523
     20 C11        -2.1469   -0.7788    0.3338 C.ar      1 <0>        -0.0334
     21 C12        -3.0627    1.1215   -0.8441 C.ar      1 <0>        -0.0334
     22 C13         2.3791   -2.9514   -0.1034 C.ar      1 <0>        -0.0504
     23 C14         2.1936   -2.3197    1.1262 C.ar      1 <0>        -0.0582
     24 C15         2.3358   -2.2081   -1.2829 C.ar      1 <0>        -0.0582
     25 C16         2.2377    4.8157    0.2501 C.3       1 <0>         0.4360
     26 C17         2.6242   -4.4215   -0.1578 C.3       1 <0>        -0.0397
     27 H1          3.6602    2.1832    0.2107 H         1 <0>         0.0660
     28 H2         -0.2322   -0.6032    1.1017 H         1 <0>         0.0639
     29 H3         -1.7428    2.7677   -1.1777 H         1 <0>         0.0639
     30 H4          1.8420   -0.4665    2.1461 H         1 <0>         0.0624
     31 H5          2.0753   -0.2679   -2.1613 H         1 <0>         0.0624
     32 H6         -2.2613   -1.7545    0.7980 H         1 <0>         0.0638
     33 H7         -3.8846    1.6264   -1.3437 H         1 <0>         0.0638
     34 H8          2.2270   -2.8877    2.0523 H         1 <0>         0.0620
     35 H9          2.4768   -2.6892   -2.2472 H         1 <0>         0.0620
     36 H10         3.2585   -4.6848   -1.0111 H         1 <0>         0.0278
     37 H11         3.1396   -4.7702    0.7436 H         1 <0>         0.0278
     38 H12         1.6741   -4.9574   -0.2481 H         1 <0>         0.0278
     39 H13        -6.3013    0.2070    0.9090 H         1 <0>         0.1442
     40 H14        -5.6487   -1.1469    1.7491 H         1 <0>         0.1442
@<TRIPOS>BOND
     1    1    5 2
     2    1    6 2
     3    1    9 1
     4    1   17 1
     5    2   25 1
     6    3   25 1
     7    4   25 1
     8    7    8 1
     9    7   10 2
    10    7   11 1
    11    8   14 1
    12    9   39 1
    13    9   40 1
    14   10   12 1
    15   10   13 1
    16   11   15 ar
    17   11   16 ar
    18   12   18 ar
    19   12   19 ar
    20   13   14 2
    21   13   27 1
    22   14   25 1
    23   15   20 ar
    24   15   28 1
    25   16   21 ar
    26   16   29 1
    27   17   20 ar
    28   17   21 ar
    29   18   23 ar
    30   18   30 1
    31   19   24 ar
    32   19   31 1
    33   20   32 1
    34   21   33 1
    35   22   23 ar
    36   22   24 ar
    37   22   26 1
    38   23   34 1
    39   24   35 1
    40   26   36 1
    41   26   37 1
    42   26   38 1
