@<TRIPOS>MOLECULE
DB00388
   25    25     0     0     0
SMALL
USER_CHARGES

@<TRIPOS>ATOM
      1 O1         -0.6256   -1.8888    1.8054 O.3       1 <0>        -0.3859
      2 O2          2.9513    1.8595    1.3527 O.3       1 <0>        -0.5068
      3 N1         -1.9418    0.4251   -0.8017 N.3       1 <0>        -0.3162
      4 C1         -0.6985   -1.2786    0.5098 C.3       1 <0>         0.0927
      5 C2         -1.8059   -0.2059    0.5091 C.3       1 <0>         0.0258
      6 C3          0.6365   -0.7120    0.1632 C.ar      1 <0>        -0.0145
      7 C4          1.1755    0.3217    0.9292 C.ar      1 <0>        -0.0145
      8 C5          1.3465   -1.2159   -0.9266 C.ar      1 <0>        -0.0559
      9 C6          2.4248    0.8514    0.6053 C.ar      1 <0>         0.1172
     10 C7          2.5955   -0.6864   -1.2504 C.ar      1 <0>        -0.0580
     11 C8          3.1346    0.3473   -0.4846 C.ar      1 <0>        -0.0202
     12 C9         -3.0071    1.4160   -0.7896 C.3       1 <0>        -0.0157
     13 H1         -0.9707   -2.0755   -0.1940 H         1 <0>         0.0656
     14 H2         -1.6115    0.5471    1.2830 H         1 <0>         0.0453
     15 H3         -2.7506   -0.6878    0.7943 H         1 <0>         0.0453
     16 H4          0.6405    0.7172    1.7887 H         1 <0>         0.0658
     17 H5          0.9401   -2.0207   -1.5334 H         1 <0>         0.0621
     18 H6         -2.1472   -0.2862   -1.5029 H         1 <0>         0.1217
     19 H7          3.1483   -1.0786   -2.0990 H         1 <0>         0.0619
     20 H8         -1.5029   -2.2589    2.0028 H         1 <0>         0.2103
     21 H9          4.1088    0.7510   -0.7473 H         1 <0>         0.0654
     22 H10        -2.7992    2.2137   -0.0691 H         1 <0>         0.0388
     23 H11        -3.9759    0.9634   -0.5540 H         1 <0>         0.0388
     24 H12        -3.0847    1.8794   -1.7781 H         1 <0>         0.0388
     25 H13         3.8193    2.1026    0.9871 H         1 <0>         0.2921
@<TRIPOS>BOND
     1    1    4 1
     2    1   20 1
     3    2    9 1
     4    2   25 1
     5    3    5 1
     6    3   12 1
     7    3   18 1
     8    4    5 1
     9    4    6 1
    10    4   13 1
    11    5   14 1
    12    5   15 1
    13    6    7 ar
    14    6    8 ar
    15    7    9 ar
    16    7   16 1
    17    8   10 ar
    18    8   17 1
    19    9   11 ar
    20   10   11 ar
    21   10   19 1
    22   11   21 1
    23   12   22 1
    24   12   23 1
    25   12   24 1
