@<TRIPOS>MOLECULE
DB00733
   19    19     0     0     0
SMALL
USER_CHARGES

@<TRIPOS>ATOM
      1 O1          3.9527   -0.2757   -0.4787 O.2       1 <0>         0.0238
      2 N1         -0.8119   -0.6541    0.0035 N.pl3     1 <0>        -0.3048
      3 N2          2.8237    0.0465    0.0241 N.pl3     1 <0>         0.0172
      4 C1          0.4814   -0.0710    0.0069 C.2       1 <0>         0.1019
      5 C2         -1.9325    0.1800   -0.0135 C.2       1 <0>        -0.0034
      6 C3          0.5455    1.4001   -0.0090 C.2       1 <0>        -0.0344
      7 C4         -0.9942   -2.1083    0.0171 C.3       1 <0>         0.0054
      8 C5         -1.8702    1.5197   -0.0275 C.2       1 <0>        -0.0477
      9 C6         -0.5701    2.1490   -0.0257 C.2       1 <0>        -0.0586
     10 C7          1.6455   -0.7475    0.0237 C.2       1 <0>         0.2411
     11 H1         -2.8859   -0.3362   -0.0154 H         1 <0>         0.0783
     12 H2          1.4691    1.9627   -0.0561 H         1 <0>         0.0638
     13 H3         -0.5329   -2.5433    0.9105 H         1 <0>         0.0432
     14 H4         -0.5408   -2.5583   -0.8729 H         1 <0>         0.0432
     15 H5         -2.0522   -2.3936    0.0246 H         1 <0>         0.0432
     16 H6         -2.7600    2.1366   -0.0420 H         1 <0>         0.0630
     17 H7         -0.5229    3.2316   -0.0571 H         1 <0>         0.0619
     18 H8          1.7371   -1.8246   -0.0131 H         1 <0>         0.1440
     19 H9          2.8186    0.8864    0.6007 H         1 <0>         0.5191
@<TRIPOS>BOND
     1    1    3 2
     2    2    4 1
     3    2    5 1
     4    2    7 1
     5    3   10 1
     6    3   19 1
     7    4    6 1
     8    4   10 2
     9    5    8 2
    10    5   11 1
    11    6    9 2
    12    6   12 1
    13    7   13 1
    14    7   14 1
    15    7   15 1
    16    8    9 1
    17    8   16 1
    18    9   17 1
    19   10   18 1
