@<TRIPOS>MOLECULE
DB00378
   51    54     0     0     0
SMALL
USER_CHARGES

@<TRIPOS>ATOM
      1 O1         -5.1903    0.0281   -0.3082 O.2       1 <0>        -0.2974
      2 O2          6.4467    0.1342    0.5153 O.2       1 <0>        -0.2927
      3 C1         -1.9191    0.0522   -0.3406 C.3       1 <0>        -0.0192
      4 C2         -0.9805   -1.0726    0.1372 C.3       1 <0>        -0.0284
      5 C3          0.2463   -1.2590   -0.7620 C.3       1 <0>        -0.0156
      6 C4          1.0546    0.0703   -0.9598 C.3       1 <0>        -0.0251
      7 C5         -3.0391   -0.0838    0.7152 C.3       1 <0>         0.0229
      8 C6         -1.1335    1.3641   -0.2703 C.3       1 <0>        -0.0464
      9 C7         -1.9304   -2.2536    0.3393 C.3       1 <0>        -0.0485
     10 C8          0.1360    1.3170   -1.1339 C.3       1 <0>        -0.0484
     11 C9          2.2708    0.2681    0.0390 C.3       1 <0>        -0.0032
     12 C10        -3.2123   -1.6060    0.8917 C.3       1 <0>        -0.0427
     13 C11        -2.4768   -0.1569   -1.7727 C.3       1 <0>        -0.0586
     14 C12         1.1048   -2.4001   -0.2935 C.2       1 <0>        -0.0801
     15 C13         3.0956   -1.0224    0.1372 C.2       1 <0>        -0.0382
     16 C14         3.1967    1.3959   -0.5129 C.3       1 <0>        -0.0363
     17 C15        -4.3206    0.5984    0.3487 C.2       1 <0>         0.1339
     18 C16         1.8147    0.6542    1.4622 C.3       1 <0>        -0.0553
     19 C17         2.3817   -2.2836    0.0840 C.2       1 <0>        -0.0616
     20 C18         4.5230    1.5234    0.2268 C.3       1 <0>         0.0107
     21 C19         4.4331   -1.0457    0.2686 C.2       1 <0>        -0.0155
     22 C20         5.2319    0.1996    0.3335 C.2       1 <0>         0.1564
     23 C21        -4.4936    2.0152    0.8257 C.3       1 <0>        -0.0058
     24 H1         -0.6194   -0.8163    1.1422 H         1 <0>         0.0312
     25 H2         -0.1089   -1.5597   -1.7569 H         1 <0>         0.0349
     26 H3          1.5378   -0.0530   -1.9443 H         1 <0>         0.0315
     27 H4         -2.7049    0.3222    1.6802 H         1 <0>         0.0383
     28 H5         -0.8617    1.5871    0.7673 H         1 <0>         0.0271
     29 H6         -1.7530    2.2024   -0.6082 H         1 <0>         0.0271
     30 H7         -1.5280   -2.9930    1.0394 H         1 <0>         0.0268
     31 H8         -2.1371   -2.7695   -0.6050 H         1 <0>         0.0268
     32 H9         -0.1718    1.3519   -2.1873 H         1 <0>         0.0269
     33 H10         0.6875    2.2483   -0.9826 H         1 <0>         0.0269
     34 H11        -4.0874   -2.0204    0.3806 H         1 <0>         0.0272
     35 H12        -3.3288   -1.8431    1.9559 H         1 <0>         0.0272
     36 H13        -1.6882   -0.2598   -2.5228 H         1 <0>         0.0235
     37 H14        -3.1043   -1.0503   -1.8521 H         1 <0>         0.0235
     38 H15        -3.0885    0.6993   -2.0796 H         1 <0>         0.0235
     39 H16         0.6634   -3.3939   -0.3083 H         1 <0>         0.0575
     40 H17         2.7008    2.3713   -0.4702 H         1 <0>         0.0278
     41 H18         3.4130    1.2028   -1.5730 H         1 <0>         0.0278
     42 H19         1.1599   -0.0969    1.9082 H         1 <0>         0.0238
     43 H20         2.6630    0.7506    2.1499 H         1 <0>         0.0238
     44 H21         1.2933    1.6158    1.4696 H         1 <0>         0.0238
     45 H22         2.9244   -3.1878    0.3490 H         1 <0>         0.0617
     46 H23         4.3825    1.9243    1.2355 H         1 <0>         0.0345
     47 H24         5.1700    2.2161   -0.3233 H         1 <0>         0.0345
     48 H25         4.9902   -1.9754    0.3381 H         1 <0>         0.0655
     49 H26        -4.3514    2.0625    1.9082 H         1 <0>         0.0306
     50 H27        -3.7844    2.6732    0.3218 H         1 <0>         0.0306
     51 H28        -5.5082    2.3540    0.5969 H         1 <0>         0.0306
@<TRIPOS>BOND
     1    1   17 2
     2    2   22 2
     3    3    4 1
     4    3    7 1
     5    3    8 1
     6    3   13 1
     7    4    5 1
     8    4    9 1
     9    4   24 1
    10    5    6 1
    11    5   14 1
    12    5   25 1
    13    6   10 1
    14    6   11 1
    15    6   26 1
    16    7   12 1
    17    7   17 1
    18    7   27 1
    19    8   10 1
    20    8   28 1
    21    8   29 1
    22    9   12 1
    23    9   30 1
    24    9   31 1
    25   10   32 1
    26   10   33 1
    27   11   15 1
    28   11   16 1
    29   11   18 1
    30   12   34 1
    31   12   35 1
    32   13   36 1
    33   13   37 1
    34   13   38 1
    35   14   19 2
    36   14   39 1
    37   15   19 1
    38   15   21 2
    39   16   20 1
    40   16   40 1
    41   16   41 1
    42   17   23 1
    43   18   42 1
    44   18   43 1
    45   18   44 1
    46   19   45 1
    47   20   22 1
    48   20   46 1
    49   20   47 1
    50   21   22 1
    51   21   48 1
    52   23   49 1
    53   23   50 1
    54   23   51 1
