@<TRIPOS>MOLECULE
DB00194
   32    34     0     0     0
SMALL
USER_CHARGES

@<TRIPOS>ATOM
      1 O1          1.1989    0.0350    1.1841 O.3       1 <0>        -0.3457
      2 O2          0.9093   -0.4955   -1.7868 O.3       1 <0>        -0.3847
      3 O3          3.5951   -1.7497    0.2572 O.3       1 <0>        -0.3864
      4 O4          2.0756    2.6758    1.0575 O.3       1 <0>        -0.3924
      5 N1         -0.7331   -1.1292    0.4237 N.pl3     1 <0>        -0.2855
      6 N2         -2.8422   -1.8666    0.3594 N.2       1 <0>        -0.2306
      7 N3         -1.1177    1.2416    0.0525 N.2       1 <0>        -0.2159
      8 N4         -3.4947    1.7296   -0.2086 N.2       1 <0>        -0.2188
      9 N5         -5.1751    0.0292   -0.0976 N.pl3     1 <0>        -0.3413
     10 C1          1.4892   -1.2961   -0.7650 C.3       1 <0>         0.1285
     11 C2          0.7197   -1.1612    0.5456 C.3       1 <0>         0.1667
     12 C3          2.8390   -0.7236   -0.3823 C.3       1 <0>         0.1135
     13 C4          2.4943    0.3612    0.6402 C.3       1 <0>         0.1126
     14 C5          2.4085    1.7548    0.0335 C.3       1 <0>         0.0730
     15 C6         -1.5192   -0.0296    0.2027 C.2       1 <0>         0.1674
     16 C7         -1.5794   -2.2077    0.5095 C.cat     1 <0>         0.1004
     17 C8         -2.8193   -0.5081    0.1669 C.2       1 <0>         0.1473
     18 C9         -3.8276    0.4261   -0.0479 C.2       1 <0>         0.1472
     19 C10        -2.1799    2.0516   -0.1492 C.2       1 <0>         0.1205
     20 H1          1.5185   -2.3354   -1.1078 H         1 <0>         0.0665
     21 H2          0.9644   -1.9908    1.2211 H         1 <0>         0.0866
     22 H3          3.4192   -0.3466   -1.2301 H         1 <0>         0.0647
     23 H4          3.1951    0.3692    1.4830 H         1 <0>         0.0647
     24 H5          1.6301    1.8165   -0.7322 H         1 <0>         0.0584
     25 H6          3.3675    2.0485   -0.4044 H         1 <0>         0.0584
     26 H7          1.4745   -0.5739   -2.5742 H         1 <0>         0.2101
     27 H8          4.4399   -1.3568    0.5356 H         1 <0>         0.2100
     28 H9         -1.2156   -3.2117    0.6804 H         1 <0>         0.1030
     29 H10         2.0302    3.5564    0.6476 H         1 <0>         0.2095
     30 H11        -1.9496    3.1032   -0.2820 H         1 <0>         0.1048
     31 H12        -5.4261   -0.9428    0.0223 H         1 <0>         0.1438
     32 H13        -5.8896    0.7268   -0.2547 H         1 <0>         0.1438
@<TRIPOS>BOND
     1    1   11 1
     2    1   13 1
     3    2   10 1
     4    2   26 1
     5    3   12 1
     6    3   27 1
     7    4   14 1
     8    4   29 1
     9    5   11 1
    10    5   15 1
    11    5   16 2
    12    6   16 1
    13    6   17 2
    14    7   15 2
    15    7   19 1
    16    8   18 1
    17    8   19 2
    18    9   18 1
    19    9   31 1
    20    9   32 1
    21   10   11 1
    22   10   12 1
    23   10   20 1
    24   11   21 1
    25   12   13 1
    26   12   22 1
    27   13   14 1
    28   13   23 1
    29   14   24 1
    30   14   25 1
    31   15   17 1
    32   16   28 1
    33   17   18 2
    34   19   30 1
