@<TRIPOS>MOLECULE
DB00184
   26    27     0     0     0
SMALL
USER_CHARGES

@<TRIPOS>ATOM
      1 N1          1.2562    0.7422    0.2007 N.3       1 <0>        -0.2984
      2 N2         -2.6784    0.5167    1.6267 N.ar      1 <0>        -0.2629
      3 C1          0.3657   -0.1931   -0.5150 C.3       1 <0>         0.0368
      4 C2          0.9485   -1.5885   -0.2236 C.3       1 <0>        -0.0320
      5 C3          2.1966   -1.3324    0.6091 C.3       1 <0>        -0.0385
      6 C4          2.5673    0.0964    0.2663 C.3       1 <0>        -0.0008
      7 C5         -1.0808   -0.0630   -0.0869 C.ar      1 <0>        -0.0122
      8 C6          1.3241    2.0589   -0.4200 C.3       1 <0>        -0.0122
      9 C7         -2.1123   -0.3863   -0.9573 C.ar      1 <0>        -0.0542
     10 C8         -1.4092    0.3796    1.1818 C.ar      1 <0>         0.0322
     11 C9         -3.4312   -0.2581   -0.5360 C.ar      1 <0>        -0.0433
     12 C10        -3.6590    0.1934    0.7540 C.ar      1 <0>         0.0276
     13 H1          0.4345   -0.0159   -1.5980 H         1 <0>         0.0512
     14 H2          1.2300   -2.0731   -1.1665 H         1 <0>         0.0284
     15 H3          0.2611   -2.2584    0.3044 H         1 <0>         0.0284
     16 H4          1.9571   -1.4200    1.6763 H         1 <0>         0.0278
     17 H5          2.9985   -2.0406    0.3810 H         1 <0>         0.0278
     18 H6          3.2077    0.5420    1.0337 H         1 <0>         0.0427
     19 H7          3.0893    0.1315   -0.6984 H         1 <0>         0.0427
     20 H8          1.9821    2.7173    0.1578 H         1 <0>         0.0391
     21 H9          0.3375    2.5342   -0.4369 H         1 <0>         0.0391
     22 H10         1.7013    2.0155   -1.4480 H         1 <0>         0.0391
     23 H11        -1.9029   -0.7398   -1.9629 H         1 <0>         0.0622
     24 H12        -0.6595    0.6354    1.9232 H         1 <0>         0.0833
     25 H13        -4.2547   -0.5044   -1.1963 H         1 <0>         0.0633
     26 H14        -4.6696    0.3105    1.1310 H         1 <0>         0.0829
@<TRIPOS>BOND
     1    1    3 1
     2    1    6 1
     3    1    8 1
     4    2   10 ar
     5    2   12 ar
     6    3    4 1
     7    3    7 1
     8    3   13 1
     9    4    5 1
    10    4   14 1
    11    4   15 1
    12    5    6 1
    13    5   16 1
    14    5   17 1
    15    6   18 1
    16    6   19 1
    17    7    9 ar
    18    7   10 ar
    19    8   20 1
    20    8   21 1
    21    8   22 1
    22    9   11 ar
    23    9   23 1
    24   10   24 1
    25   11   12 ar
    26   11   25 1
    27   12   26 1
