@<TRIPOS>MOLECULE
DB00650
   57    59     0     0     0
SMALL
USER_CHARGES

@<TRIPOS>ATOM
      1 O1          5.2264   -2.7067   -0.9384 O.2       1 <0>        -0.2636
      2 O2          3.3754   -0.2893   -3.4515 O.2       1 <0>        -0.2790
      3 O3         -3.5887   -1.2267    2.3065 O.2       1 <0>        -0.2702
      4 O4         -7.7315   -2.6423   -0.1918 O.3       1 <0>        -0.4793
      5 O5         -6.0278   -2.2814   -1.6470 O.2       1 <0>        -0.2489
      6 O6         -7.9263    3.0521   -0.5217 O.3       1 <0>        -0.4806
      7 O7         -8.1407    2.2963    1.6068 O.2       1 <0>        -0.2510
      8 N1          4.5238    0.0714   -1.4343 N.am      1 <0>        -0.2607
      9 N2          5.5546    1.8027    0.4696 N.pl3     1 <0>        -0.3270
     10 N3          1.5498    0.4746   -1.0249 N.pl3     1 <0>        -0.3420
     11 N4          6.9046    0.0135    1.3344 N.pl3     1 <0>        -0.3147
     12 N5          7.0038   -2.1249    0.3639 N.2       1 <0>        -0.1758
     13 N6         -4.5432   -1.0167    0.2036 N.am      1 <0>        -0.2983
     14 N7          8.5023   -1.4738    2.0564 N.pl3     1 <0>        -0.3289
     15 C1          3.8110    1.3442   -1.1600 C.3       1 <0>         0.0619
     16 C2          4.7558    2.3993   -0.5744 C.3       1 <0>         0.0309
     17 C3          2.5957    1.0945   -0.2592 C.3       1 <0>         0.0296
     18 C4          5.4678   -0.3669   -0.4930 C.2       1 <0>         0.1416
     19 C5          5.9619    0.4819    0.4453 C.2       1 <0>         0.1261
     20 C6          5.8874   -1.8240   -0.3996 C.2       1 <0>         0.2979
     21 C7          4.1994   -0.6171   -2.6021 C.2       1 <0>         0.2073
     22 C8          0.3127    0.1177   -0.5023 C.ar      1 <0>         0.0272
     23 C9          7.4451   -1.2405    1.2165 C.cat     1 <0>         0.1951
     24 C10        -0.6437   -0.4820   -1.3217 C.ar      1 <0>        -0.0401
     25 C11         0.0277    0.3577    0.8420 C.ar      1 <0>        -0.0401
     26 C12        -5.8933   -1.3484    0.5986 C.3       1 <0>         0.1209
     27 C13        -6.6978   -0.1216    1.0457 C.3       1 <0>        -0.0140
     28 C14        -2.1700   -0.6013    0.5472 C.ar      1 <0>         0.0368
     29 C15        -1.8849   -0.8415   -0.7969 C.ar      1 <0>        -0.0479
     30 C16        -1.2136   -0.0019    1.3667 C.ar      1 <0>        -0.0479
     31 C17        -3.4642   -0.9767    1.0944 C.2       1 <0>         0.2447
     32 C18        -6.9213    0.9565   -0.0224 C.3       1 <0>         0.0470
     33 C19        -6.5299   -2.1140   -0.5431 C.2       1 <0>         0.3253
     34 C20        -7.7091    2.1507    0.4716 C.2       1 <0>         0.3048
     35 H1          3.4502    1.7507   -2.1150 H         1 <0>         0.0535
     36 H2          5.4315    2.7601   -1.3594 H         1 <0>         0.0480
     37 H3          4.2091    3.2671   -0.1912 H         1 <0>         0.0480
     38 H4          2.2338    2.0555    0.1261 H         1 <0>         0.0480
     39 H5          2.8736    0.4667    0.5958 H         1 <0>         0.0480
     40 H6          5.9921    2.4013    1.1618 H         1 <0>         0.1475
     41 H7          1.6996    0.2985   -2.0123 H         1 <0>         0.1461
     42 H8          7.2639    0.6803    2.0085 H         1 <0>         0.1698
     43 H9          4.8202   -1.5045   -2.7754 H         1 <0>         0.1257
     44 H10        -5.8210   -2.0461    1.4424 H         1 <0>         0.0614
     45 H11        -0.4314   -0.6812   -2.3691 H         1 <0>         0.0636
     46 H12         0.7424    0.8233    1.5143 H         1 <0>         0.0636
     47 H13        -7.6779   -0.4520    1.4140 H         1 <0>         0.0294
     48 H14        -6.1931    0.3391    1.9053 H         1 <0>         0.0294
     49 H15        -2.5881   -1.3342   -1.4620 H         1 <0>         0.0626
     50 H16        -1.4180    0.1978    2.4155 H         1 <0>         0.0626
     51 H17        -4.4108   -0.7269   -0.7598 H         1 <0>         0.1498
     52 H18        -5.9543    1.3263   -0.3810 H         1 <0>         0.0378
     53 H19        -7.4690    0.5261   -0.8679 H         1 <0>         0.0378
     54 H20         8.8274   -0.7670    2.7071 H         1 <0>         0.1451
     55 H21         8.9881   -2.3641    2.0542 H         1 <0>         0.1451
     56 H22        -8.1356   -3.1516   -0.9265 H         1 <0>         0.2951
     57 H23        -8.4522    3.8193   -0.2100 H         1 <0>         0.2951
@<TRIPOS>BOND
     1    1   20 2
     2    2   21 2
     3    3   31 2
     4    4   33 1
     5    4   56 1
     6    5   33 2
     7    6   34 1
     8    6   57 1
     9    7   34 2
    10    8   15 1
    11    8   18 1
    12    8   21 am
    13    9   16 1
    14    9   19 1
    15    9   40 1
    16   10   17 1
    17   10   22 1
    18   10   41 1
    19   11   19 1
    20   11   23 2
    21   11   42 1
    22   12   20 1
    23   12   23 1
    24   13   26 1
    25   13   31 am
    26   13   51 1
    27   14   23 1
    28   14   54 1
    29   14   55 1
    30   15   16 1
    31   15   17 1
    32   15   35 1
    33   16   36 1
    34   16   37 1
    35   17   38 1
    36   17   39 1
    37   18   19 2
    38   18   20 1
    39   21   43 1
    40   22   24 ar
    41   22   25 ar
    42   24   29 ar
    43   24   45 1
    44   25   30 ar
    45   25   46 1
    46   26   27 1
    47   26   33 1
    48   26   44 1
    49   27   32 1
    50   27   47 1
    51   27   48 1
    52   28   29 ar
    53   28   30 ar
    54   28   31 1
    55   29   49 1
    56   30   50 1
    57   32   34 1
    58   32   52 1
    59   32   53 1
