@<TRIPOS>MOLECULE
DB00191
   26    26     0     0     0
SMALL
USER_CHARGES

@<TRIPOS>ATOM
      1 N1         -2.9617    0.0235   -0.7630 N.3       1 <0>        -0.3248
      2 C1         -1.6637    0.0722   -0.0673 C.3       1 <0>         0.0148
      3 C2         -0.5470   -0.0030   -1.1417 C.3       1 <0>        -0.0100
      4 C3         -1.6231   -1.1187    0.9001 C.3       1 <0>        -0.0469
      5 C4         -1.6236    1.3864    0.7243 C.3       1 <0>        -0.0469
      6 C5          0.8753   -0.0185   -0.6303 C.ar      1 <0>        -0.0456
      7 C6          1.5446    1.1809   -0.4529 C.ar      1 <0>        -0.0585
      8 C7          1.4811   -1.2319   -0.3496 C.ar      1 <0>        -0.0585
      9 C8          2.8573    1.1666    0.0186 C.ar      1 <0>        -0.0615
     10 C9          2.7936   -1.2464    0.1221 C.ar      1 <0>        -0.0615
     11 C10         3.4819   -0.0470    0.3061 C.ar      1 <0>        -0.0617
     12 H1         -0.6941   -0.8992   -1.7626 H         1 <0>         0.0331
     13 H2         -0.6543    0.8377   -1.8427 H         1 <0>         0.0331
     14 H3         -0.7278   -1.0946    1.5306 H         1 <0>         0.0247
     15 H4         -2.4850   -1.1131    1.5786 H         1 <0>         0.0247
     16 H5         -1.6329   -2.0739    0.3624 H         1 <0>         0.0247
     17 H6         -0.7233    1.4548    1.3442 H         1 <0>         0.0247
     18 H7         -2.4815    1.4724    1.4023 H         1 <0>         0.0247
     19 H8         -1.6412    2.2560    0.0571 H         1 <0>         0.0247
     20 H9         -3.7230    0.0454   -0.0852 H         1 <0>         0.1187
     21 H10        -3.0533   -0.8600   -1.2635 H         1 <0>         0.1187
     22 H11         1.0687    2.1314   -0.6758 H         1 <0>         0.0620
     23 H12         0.9558   -2.1718   -0.4916 H         1 <0>         0.0620
     24 H13         3.3933    2.1003    0.1615 H         1 <0>         0.0618
     25 H14         3.2801   -2.1912    0.3455 H         1 <0>         0.0618
     26 H15         4.5040   -0.0583    0.6730 H         1 <0>         0.0618
@<TRIPOS>BOND
     1    1    2 1
     2    1   20 1
     3    1   21 1
     4    2    3 1
     5    2    4 1
     6    2    5 1
     7    3    6 1
     8    3   12 1
     9    3   13 1
    10    4   14 1
    11    4   15 1
    12    4   16 1
    13    5   17 1
    14    5   18 1
    15    5   19 1
    16    6    7 ar
    17    6    8 ar
    18    7    9 ar
    19    7   22 1
    20    8   10 ar
    21    8   23 1
    22    9   11 ar
    23    9   24 1
    24   10   11 ar
    25   10   25 1
    26   11   26 1
