@<TRIPOS>MOLECULE
DB00860
   54    57     0     0     0
SMALL
USER_CHARGES

@<TRIPOS>ATOM
      1 O1         -2.9868    0.1592   -1.9064 O.3       1 <0>        -0.3804
      2 O2          0.3564   -1.9622    1.4967 O.3       1 <0>        -0.3914
      3 O3         -4.8918    0.2444    0.9329 O.2       1 <0>        -0.2919
      4 O4         -5.8858   -1.9828   -0.1943 O.3       1 <0>        -0.3874
      5 O5          6.1349   -0.6271   -2.2459 O.2       1 <0>        -0.2879
      6 C1         -1.7029   -0.0466    0.1811 C.3       1 <0>         0.0091
      7 C2         -0.7467    1.0847   -0.2575 C.3       1 <0>        -0.0292
      8 C3          0.6711    0.9486    0.3175 C.3       1 <0>        -0.0311
      9 C4          1.2863   -0.4091   -0.1738 C.3       1 <0>         0.0007
     10 C5         -3.0061    0.4406   -0.5100 C.3       1 <0>         0.1315
     11 C6         -1.1163   -1.3750   -0.3370 C.3       1 <0>        -0.0178
     12 C7         -1.5427    2.3541    0.0339 C.3       1 <0>        -0.0463
     13 C8          0.3401   -1.6165    0.1189 C.3       1 <0>         0.0600
     14 C9          2.7905   -0.5812    0.2793 C.3       1 <0>         0.0131
     15 C10        -3.0007    1.9712   -0.2949 C.3       1 <0>        -0.0162
     16 C11         1.5425    2.1424   -0.1128 C.3       1 <0>        -0.0458
     17 C12        -1.9204   -0.1042    1.7188 C.3       1 <0>        -0.0562
     18 C13         2.9935    1.9880    0.3255 C.3       1 <0>        -0.0302
     19 C14         3.5482    0.6751   -0.1643 C.2       1 <0>        -0.0559
     20 C15        -4.2590   -0.2174   -0.0154 C.2       1 <0>         0.1902
     21 C16         2.9736   -0.7393    1.8056 C.3       1 <0>        -0.0520
     22 C17         3.3844   -1.8327   -0.3510 C.2       1 <0>        -0.0701
     23 C18         4.6170    0.6542   -0.9761 C.2       1 <0>        -0.0149
     24 C19        -4.6915   -1.4707   -0.7465 C.3       1 <0>         0.1052
     25 C20         4.4471   -1.8601   -1.1611 C.2       1 <0>        -0.0180
     26 C21         5.1476   -0.6130   -1.5184 C.2       1 <0>         0.1787
     27 H1         -0.6369    1.0425   -1.3540 H         1 <0>         0.0310
     28 H2          0.6256    0.9556    1.4112 H         1 <0>         0.0308
     29 H3          1.3103   -0.3395   -1.2752 H         1 <0>         0.0340
     30 H4         -1.1257   -1.3897   -1.4337 H         1 <0>         0.0297
     31 H5         -1.7431   -2.2091   -0.0016 H         1 <0>         0.0297
     32 H6         -1.2094    3.1976   -0.5793 H         1 <0>         0.0269
     33 H7         -1.4517    2.6523    1.0843 H         1 <0>         0.0269
     34 H8          0.7049   -2.4944   -0.4258 H         1 <0>         0.0596
     35 H9         -3.6454    2.3007    0.5267 H         1 <0>         0.0297
     36 H10        -3.3265    2.5047   -1.1954 H         1 <0>         0.0297
     37 H11         1.1443    3.0704    0.3144 H         1 <0>         0.0271
     38 H12         1.5039    2.2563   -1.2044 H         1 <0>         0.0271
     39 H13        -0.9878   -0.1486    2.2839 H         1 <0>         0.0236
     40 H14        -2.4610    0.7677    2.1013 H         1 <0>         0.0236
     41 H15        -2.5042   -0.9906    1.9924 H         1 <0>         0.0236
     42 H16         3.0666    2.0402    1.4178 H         1 <0>         0.0310
     43 H17         3.5722    2.8363   -0.0599 H         1 <0>         0.0310
     44 H18         2.6779   -1.7326    2.1607 H         1 <0>         0.0241
     45 H19         4.0267   -0.6160    2.0916 H         1 <0>         0.0241
     46 H20         2.3991   -0.0041    2.3771 H         1 <0>         0.0241
     47 H21         2.9261   -2.7875   -0.1027 H         1 <0>         0.0582
     48 H22        -3.6961    0.6699   -2.3332 H         1 <0>         0.2108
     49 H23        -0.2066   -2.7463    1.6129 H         1 <0>         0.2098
     50 H24         5.1230    1.5650   -1.2784 H         1 <0>         0.0655
     51 H25        -3.9223   -2.2388   -0.6536 H         1 <0>         0.0637
     52 H26        -4.8848   -1.2653   -1.8020 H         1 <0>         0.0637
     53 H27         4.8256   -2.7924   -1.5637 H         1 <0>         0.0653
     54 H28        -6.5876   -1.3292   -0.3560 H         1 <0>         0.2100
@<TRIPOS>BOND
     1    1   10 1
     2    1   48 1
     3    2   13 1
     4    2   49 1
     5    3   20 2
     6    4   24 1
     7    4   54 1
     8    5   26 2
     9    6    7 1
    10    6   10 1
    11    6   11 1
    12    6   17 1
    13    7    8 1
    14    7   12 1
    15    7   27 1
    16    8    9 1
    17    8   16 1
    18    8   28 1
    19    9   13 1
    20    9   14 1
    21    9   29 1
    22   10   15 1
    23   10   20 1
    24   11   13 1
    25   11   30 1
    26   11   31 1
    27   12   15 1
    28   12   32 1
    29   12   33 1
    30   13   34 1
    31   14   19 1
    32   14   21 1
    33   14   22 1
    34   15   35 1
    35   15   36 1
    36   16   18 1
    37   16   37 1
    38   16   38 1
    39   17   39 1
    40   17   40 1
    41   17   41 1
    42   18   19 1
    43   18   42 1
    44   18   43 1
    45   19   23 2
    46   20   24 1
    47   21   44 1
    48   21   45 1
    49   21   46 1
    50   22   25 2
    51   22   47 1
    52   23   26 1
    53   23   50 1
    54   24   51 1
    55   24   52 1
    56   25   26 1
    57   25   53 1
