@<TRIPOS>MOLECULE
DB00529
   10     9     0     0     0
SMALL
USER_CHARGES

@<TRIPOS>ATOM
      1 P1         -0.5182   -0.0399    0.3237 P.3       1 <0>         0.4341
      2 O1         -0.8915    1.3443   -0.4317 O.3       1 <0>        -0.3165
      3 O2         -1.3579   -1.1249   -0.5392 O.3       1 <0>        -0.3165
      4 O3         -0.8730   -0.0363    1.7842 O.2       1 <0>        -0.2467
      5 O4          2.0389    0.7133   -0.0450 O.3       1 <0>        -0.4720
      6 O5          1.5561   -1.5102   -0.1397 O.2       1 <0>        -0.2367
      7 C1          1.2002   -0.3502    0.0082 C.2       1 <0>         0.4181
      8 H1         -1.7874    1.7238   -0.3076 H         1 <0>         0.2202
      9 H2         -2.3324   -1.1610   -0.4330 H         1 <0>         0.2202
     10 H3          2.9650    0.4410   -0.2199 H         1 <0>         0.2957
@<TRIPOS>BOND
     1    1    2 1
     2    1    3 1
     3    1    4 2
     4    1    7 1
     5    2    8 1
     6    3    9 1
     7    5    7 1
     8    5   10 1
     9    6    7 2
