@<TRIPOS>MOLECULE
DB00571
   40    41     0     0     0
SMALL
USER_CHARGES

@<TRIPOS>ATOM
      1 O1         -0.3172    1.6462    0.8894 O.3       1 <0>        -0.4888
      2 O2          2.0172    2.4266    2.2464 O.3       1 <0>        -0.3872
      3 N1          2.5014    0.0298   -0.5334 N.3       1 <0>        -0.3112
      4 C1          2.0551    2.0185    0.8760 C.3       1 <0>         0.1015
      5 C2          2.3804    0.5237    0.8316 C.3       1 <0>         0.0254
      6 C3          2.8663   -1.3804   -0.5468 C.3       1 <0>         0.0021
      7 C4          0.7178    2.3651    0.2251 C.3       1 <0>         0.1166
      8 C5          2.9780   -1.8843   -1.9829 C.3       1 <0>        -0.0499
      9 C6          1.8298   -2.1807    0.2356 C.3       1 <0>        -0.0499
     10 C7         -1.4170    1.3199    0.1480 C.ar      1 <0>         0.1283
     11 C8         -2.1676    0.1652    0.4233 C.ar      1 <0>         0.0238
     12 C9         -3.2989   -0.1310   -0.3738 C.ar      1 <0>        -0.0144
     13 C10        -1.7763    2.1701   -0.8982 C.ar      1 <0>        -0.0193
     14 C11        -1.8206   -0.7019    1.4721 C.ar      1 <0>        -0.0505
     15 C12        -3.6464    0.7362   -1.4225 C.ar      1 <0>        -0.0538
     16 C13        -2.8890    1.8790   -1.6818 C.ar      1 <0>        -0.0577
     17 C14        -4.0497   -1.2854   -0.0987 C.ar      1 <0>        -0.0539
     18 C15        -2.5777   -1.8447    1.7311 C.ar      1 <0>        -0.0611
     19 C16        -3.6902   -2.1360    0.9471 C.ar      1 <0>        -0.0612
     20 H1          2.8578    2.5864    0.3905 H         1 <0>         0.0640
     21 H2          1.5978    0.0094    1.3985 H         1 <0>         0.0450
     22 H3          3.3159    0.3579    1.3824 H         1 <0>         0.0450
     23 H4          3.8476   -1.5152   -0.0740 H         1 <0>         0.0455
     24 H5          3.2012    0.5734   -1.0377 H         1 <0>         0.1223
     25 H6          0.7798    2.1204   -0.8426 H         1 <0>         0.0723
     26 H7          0.5208    3.4371    0.3441 H         1 <0>         0.0723
     27 H8          3.2760   -2.9381   -2.0029 H         1 <0>         0.0245
     28 H9          2.0237   -1.7940   -2.5142 H         1 <0>         0.0245
     29 H10         3.7309   -1.3166   -2.5410 H         1 <0>         0.0245
     30 H11         1.9245   -2.0505    1.3184 H         1 <0>         0.0245
     31 H12         1.9638   -3.2534    0.0515 H         1 <0>         0.0245
     32 H13         0.8060   -1.9306   -0.0653 H         1 <0>         0.0245
     33 H14         1.8460    3.3837    2.2624 H         1 <0>         0.2100
     34 H15        -1.2429    3.0897   -1.1192 H         1 <0>         0.0654
     35 H16        -0.9569   -0.5039    2.1033 H         1 <0>         0.0625
     36 H17        -4.5130    0.5294   -2.0468 H         1 <0>         0.0624
     37 H18        -3.1738    2.5453   -2.4910 H         1 <0>         0.0619
     38 H19        -4.9232   -1.5329   -0.6984 H         1 <0>         0.0624
     39 H20        -2.2982   -2.5076    2.5449 H         1 <0>         0.0618
     40 H21        -4.2791   -3.0258    1.1493 H         1 <0>         0.0618
@<TRIPOS>BOND
     1    1    7 1
     2    1   10 1
     3    2    4 1
     4    2   33 1
     5    3    5 1
     6    3    6 1
     7    3   24 1
     8    4    5 1
     9    4    7 1
    10    4   20 1
    11    5   21 1
    12    5   22 1
    13    6    8 1
    14    6    9 1
    15    6   23 1
    16    7   25 1
    17    7   26 1
    18    8   27 1
    19    8   28 1
    20    8   29 1
    21    9   30 1
    22    9   31 1
    23    9   32 1
    24   10   11 ar
    25   10   13 ar
    26   11   12 ar
    27   11   14 ar
    28   12   15 ar
    29   12   17 ar
    30   13   16 ar
    31   13   34 1
    32   14   18 ar
    33   14   35 1
    34   15   16 ar
    35   15   36 1
    36   16   37 1
    37   17   19 ar
    38   17   38 1
    39   18   19 ar
    40   18   39 1
    41   19   40 1
