@<TRIPOS>MOLECULE
DB00402
   44    47     0     0     0
SMALL
USER_CHARGES

@<TRIPOS>ATOM
      1 Cl1        -6.7757    3.2938    0.4148 Cl        1 <0>        -0.0820
      2 O1         -0.6665    0.2683   -0.7041 O.3       1 <0>        -0.4218
      3 O2          0.5147   -0.2351   -2.5956 O.2       1 <0>        -0.2262
      4 O3         -3.2104   -2.1975    1.9615 O.2       1 <0>        -0.2677
      5 N1          1.5436    0.8979   -0.8471 N.am      1 <0>        -0.2649
      6 N2          3.9508    1.4757    0.5839 N.3       1 <0>        -0.3024
      7 N3         -2.6302   -0.8131    0.1150 N.am      1 <0>        -0.2080
      8 N4          0.1842   -2.6507   -1.2344 N.ar      1 <0>        -0.2506
      9 N5         -0.9957   -3.8551    1.0698 N.ar      1 <0>        -0.2469
     10 N6         -4.5538    0.0744    1.1671 N.ar      1 <0>        -0.2384
     11 C1          1.4808    1.4951    0.4885 C.3       1 <0>         0.0306
     12 C2          2.7938    1.1226   -1.5679 C.3       1 <0>         0.0306
     13 C3          2.7187    1.1347    1.3110 C.3       1 <0>         0.0146
     14 C4          4.0023    0.7658   -0.7031 C.3       1 <0>         0.0146
     15 C5         -1.5595   -0.8354   -0.8934 C.3       1 <0>         0.2247
     16 C6          0.4660    0.2676   -1.4744 C.2       1 <0>         0.4049
     17 C7          5.1280    1.1594    1.3918 C.3       1 <0>        -0.0126
     18 C8         -0.8521   -2.1147   -0.5810 C.ar      1 <0>         0.1311
     19 C9         -1.4047   -2.7073    0.5261 C.ar      1 <0>         0.1525
     20 C10        -2.5261   -1.9069    0.9973 C.2       1 <0>         0.2753
     21 C11        -3.6185    0.1625    0.1885 C.ar      1 <0>         0.1309
     22 C12        -3.5924    1.1839   -0.7538 C.ar      1 <0>        -0.0198
     23 C13         0.6273   -3.8175   -0.7070 C.ar      1 <0>         0.0462
     24 C14         0.0527   -4.4040    0.4165 C.ar      1 <0>         0.0465
     25 C15        -4.5756    2.1649   -0.6886 C.ar      1 <0>        -0.0387
     26 C16        -5.4933    1.0460    1.1990 C.ar      1 <0>         0.0480
     27 C17        -5.5479    2.1020    0.3034 C.ar      1 <0>         0.0592
     28 H1          0.5820    1.1736    1.0227 H         1 <0>         0.0478
     29 H2          1.4115    2.5812    0.3522 H         1 <0>         0.0478
     30 H3          2.8198    2.1832   -1.8467 H         1 <0>         0.0478
     31 H4          2.8132    0.5406   -2.4949 H         1 <0>         0.0478
     32 H5          2.6769    1.6858    2.2581 H         1 <0>         0.0442
     33 H6          2.6979    0.0631    1.5511 H         1 <0>         0.0442
     34 H7          4.0304   -0.3204   -0.5431 H         1 <0>         0.0442
     35 H8          4.9122    1.0426   -1.2488 H         1 <0>         0.0442
     36 H9         -1.9922   -0.8510   -1.9009 H         1 <0>         0.1030
     37 H10         5.1108    1.7213    2.3324 H         1 <0>         0.0391
     38 H11         6.0441    1.4533    0.8677 H         1 <0>         0.0391
     39 H12         5.1938    0.0915    1.6291 H         1 <0>         0.0391
     40 H13        -2.8565    1.2596   -1.5455 H         1 <0>         0.0652
     41 H14         1.4677   -4.2751   -1.2158 H         1 <0>         0.0845
     42 H15         0.4254   -5.3382    0.8197 H         1 <0>         0.0845
     43 H16        -4.5743    2.9712   -1.4173 H         1 <0>         0.0634
     44 H17        -6.2231    0.9404    1.9960 H         1 <0>         0.0845
@<TRIPOS>BOND
     1    1   27 1
     2    2   15 1
     3    2   16 1
     4    3   16 2
     5    4   20 2
     6    5   11 1
     7    5   12 1
     8    5   16 am
     9    6   13 1
    10    6   14 1
    11    6   17 1
    12    7   15 1
    13    7   20 am
    14    7   21 1
    15    8   18 ar
    16    8   23 ar
    17    9   19 ar
    18    9   24 ar
    19   10   21 ar
    20   10   26 ar
    21   11   13 1
    22   11   28 1
    23   11   29 1
    24   12   14 1
    25   12   30 1
    26   12   31 1
    27   13   32 1
    28   13   33 1
    29   14   34 1
    30   14   35 1
    31   15   18 1
    32   15   36 1
    33   17   37 1
    34   17   38 1
    35   17   39 1
    36   18   19 ar
    37   19   20 1
    38   21   22 ar
    39   22   25 ar
    40   22   40 1
    41   23   24 ar
    42   23   41 1
    43   24   42 1
    44   25   27 ar
    45   25   43 1
    46   26   27 ar
    47   26   44 1
