@<TRIPOS>MOLECULE
DB00491
   31    31     0     0     0
SMALL
USER_CHARGES

@<TRIPOS>ATOM
      1 O1          3.0076    0.0834   -0.5652 O.3       1 <0>        -0.3875
      2 O2          1.7675   -2.4032   -1.3302 O.3       1 <0>        -0.3866
      3 O3         -0.2480   -3.2139    0.5814 O.3       1 <0>        -0.3879
      4 O4          2.5792    2.5021    0.2111 O.3       1 <0>        -0.3934
      5 O5         -3.6243    1.1366   -1.1571 O.3       1 <0>        -0.3937
      6 N1         -0.5019    0.5084    0.6979 N.3       1 <0>        -0.2901
      7 C1          0.9331    0.7996    0.4950 C.3       1 <0>         0.0622
      8 C2          1.5935   -0.1258   -0.5506 C.3       1 <0>         0.1011
      9 C3          1.3603   -1.6033   -0.2181 C.3       1 <0>         0.1095
     10 C4         -0.1138   -1.8905    0.0619 C.3       1 <0>         0.0962
     11 C5         -0.6949   -0.8983    1.0718 C.3       1 <0>         0.0280
     12 C6          1.1852    2.2834    0.1894 C.3       1 <0>         0.0622
     13 C7         -1.3617    0.8886   -0.4224 C.3       1 <0>         0.0226
     14 C8         -2.8277    0.7414   -0.0481 C.3       1 <0>         0.0569
     15 H1          1.4427    0.6081    1.4517 H         1 <0>         0.0511
     16 H2          1.2289    0.0908   -1.5623 H         1 <0>         0.0636
     17 H3          1.9863   -1.9104    0.6291 H         1 <0>         0.0646
     18 H4         -0.6819   -1.8714   -0.8756 H         1 <0>         0.0633
     19 H5         -1.7310   -1.1521    1.3137 H         1 <0>         0.0453
     20 H6         -0.1898   -1.0594    2.0361 H         1 <0>         0.0453
     21 H7          0.7151    2.9367    0.9318 H         1 <0>         0.0573
     22 H8          0.8296    2.5682   -0.8048 H         1 <0>         0.0573
     23 H9         -1.1477    0.3232   -1.3371 H         1 <0>         0.0449
     24 H10        -1.2196    1.9417   -0.6888 H         1 <0>         0.0449
     25 H11         3.1715    0.9609   -0.9494 H         1 <0>         0.2100
     26 H12         1.5970   -3.3322   -1.0982 H         1 <0>         0.2100
     27 H13        -3.0848    1.3748    0.8075 H         1 <0>         0.0570
     28 H14        -3.1162   -0.2886    0.1694 H         1 <0>         0.0570
     29 H15        -1.1950   -3.3741    0.7336 H         1 <0>         0.2099
     30 H16         2.8956    2.3242    1.1132 H         1 <0>         0.2095
     31 H17        -4.5545    1.0509   -0.8868 H         1 <0>         0.2095
@<TRIPOS>BOND
     1    1    8 1
     2    1   25 1
     3    2    9 1
     4    2   26 1
     5    3   10 1
     6    3   29 1
     7    4   12 1
     8    4   30 1
     9    5   14 1
    10    5   31 1
    11    6    7 1
    12    6   11 1
    13    6   13 1
    14    7    8 1
    15    7   12 1
    16    7   15 1
    17    8    9 1
    18    8   16 1
    19    9   10 1
    20    9   17 1
    21   10   11 1
    22   10   18 1
    23   11   19 1
    24   11   20 1
    25   12   21 1
    26   12   22 1
    27   13   14 1
    28   13   23 1
    29   13   24 1
    30   14   27 1
    31   14   28 1
