@<TRIPOS>MOLECULE
DB00704
   48    53     0     0     0
SMALL
USER_CHARGES

@<TRIPOS>ATOM
      1 O1         -3.0692   -0.4866   -1.7076 O.3       1 <0>        -0.4764
      2 O2         -0.1610    2.6959   -0.1947 O.3       1 <0>        -0.3860
      3 O3         -4.6979    1.3207   -0.5226 O.2       1 <0>        -0.2934
      4 O4         -4.0557   -3.1651   -1.0849 O.3       1 <0>        -0.5033
      5 N1          1.6734    0.6510    0.0907 N.3       1 <0>        -0.2960
      6 C1         -1.1179    0.5265   -0.7010 C.3       1 <0>         0.0746
      7 C2         -0.6273    1.4747    0.4031 C.3       1 <0>         0.0957
      8 C3          0.5823    0.7579    1.0942 C.3       1 <0>         0.0441
      9 C4         -2.4852    0.8056   -1.3454 C.3       1 <0>         0.1701
     10 C5          0.0027    0.3257   -1.7485 C.3       1 <0>        -0.0238
     11 C6         -1.4667   -0.7952   -0.1086 C.ar      1 <0>         0.0141
     12 C7         -1.7610    1.8749    1.3641 C.3       1 <0>        -0.0147
     13 C8          1.3275   -0.1244   -1.1049 C.3       1 <0>         0.0003
     14 C9          0.1703   -0.6062    1.7532 C.3       1 <0>        -0.0089
     15 C10        -0.8593   -1.3895    0.9812 C.ar      1 <0>        -0.0382
     16 C11         2.9484    0.2231    0.6560 C.3       1 <0>         0.0021
     17 C12        -2.9352    2.4808    0.5970 C.3       1 <0>         0.0123
     18 C13         4.0567    0.3622   -0.3367 C.3       1 <0>        -0.0282
     19 C14        -3.4836    1.4982   -0.4129 C.2       1 <0>         0.1745
     20 C15        -2.5438   -1.3472   -0.7719 C.ar      1 <0>         0.1669
     21 C16         5.4373   -0.0530    0.0598 C.3       1 <0>        -0.0488
     22 C17         4.6580   -0.8739   -0.9256 C.3       1 <0>        -0.0488
     23 C18        -1.3253   -2.6522    1.3472 C.ar      1 <0>        -0.0546
     24 C19        -3.0093   -2.5977   -0.4369 C.ar      1 <0>         0.1588
     25 C20        -2.3805   -3.2570    0.6295 C.ar      1 <0>        -0.0162
     26 H1          0.9532    1.4211    1.8874 H         1 <0>         0.0494
     27 H2         -2.3959    1.4193   -2.2489 H         1 <0>         0.0824
     28 H3         -0.2863   -0.4145   -2.5064 H         1 <0>         0.0288
     29 H4          0.1693    1.2652   -2.2916 H         1 <0>         0.0288
     30 H5         -2.1168    1.0215    1.9513 H         1 <0>         0.0298
     31 H6         -1.3926    2.6236    2.0761 H         1 <0>         0.0298
     32 H7          1.2802   -1.1959   -0.8732 H         1 <0>         0.0427
     33 H8          2.0922   -0.0125   -1.8819 H         1 <0>         0.0427
     34 H9         -0.2681   -0.3772    2.7337 H         1 <0>         0.0329
     35 H10         1.0396   -1.2399    1.9507 H         1 <0>         0.0329
     36 H11         3.1939    0.8661    1.5105 H         1 <0>         0.0429
     37 H12         2.9030   -0.8045    1.0336 H         1 <0>         0.0429
     38 H13        -2.6631    3.4041    0.0772 H         1 <0>         0.0344
     39 H14        -3.7335    2.7285    1.3060 H         1 <0>         0.0344
     40 H15         3.9927    1.2615   -0.9386 H         1 <0>         0.0313
     41 H16         5.5931   -0.4673    1.0484 H         1 <0>         0.0268
     42 H17         6.2693    0.5293   -0.3172 H         1 <0>         0.0268
     43 H18         4.9622   -0.8386   -1.9646 H         1 <0>         0.0268
     44 H19         4.2987   -1.8425   -0.6007 H         1 <0>         0.0268
     45 H20        -0.7933    2.9694   -0.8797 H         1 <0>         0.2103
     46 H21        -0.8930   -3.1724    2.1976 H         1 <0>         0.0622
     47 H22        -2.7272   -4.2417    0.9350 H         1 <0>         0.0655
     48 H23        -4.3553   -2.5517   -1.7783 H         1 <0>         0.2923
@<TRIPOS>BOND
     1    1    9 1
     2    1   20 1
     3    2    7 1
     4    2   45 1
     5    3   19 2
     6    4   24 1
     7    4   48 1
     8    5    8 1
     9    5   13 1
    10    5   16 1
    11    6    7 1
    12    6    9 1
    13    6   10 1
    14    6   11 1
    15    7    8 1
    16    7   12 1
    17    8   14 1
    18    8   26 1
    19    9   19 1
    20    9   27 1
    21   10   13 1
    22   10   28 1
    23   10   29 1
    24   11   15 ar
    25   11   20 ar
    26   12   17 1
    27   12   30 1
    28   12   31 1
    29   13   32 1
    30   13   33 1
    31   14   15 1
    32   14   34 1
    33   14   35 1
    34   15   23 ar
    35   16   18 1
    36   16   36 1
    37   16   37 1
    38   17   19 1
    39   17   38 1
    40   17   39 1
    41   18   21 1
    42   18   22 1
    43   18   40 1
    44   20   24 ar
    45   21   22 1
    46   21   41 1
    47   21   42 1
    48   22   43 1
    49   22   44 1
    50   23   25 ar
    51   23   46 1
    52   24   25 ar
    53   25   47 1
