@<TRIPOS>MOLECULE
DB00670
   47    50     0     0     0
SMALL
USER_CHARGES

@<TRIPOS>ATOM
      1 O1         -0.2474   -1.1721   -1.7214 O.2       1 <0>        -0.2734
      2 O2          2.9504    0.8232    3.1616 O.2       1 <0>        -0.2698
      3 N1         -2.0926    0.3465   -0.6730 N.3       1 <0>        -0.2916
      4 N2         -4.5520   -0.2312    0.7328 N.3       1 <0>        -0.3029
      5 N3          1.4819   -0.1279   -0.5236 N.am      1 <0>        -0.2211
      6 N4          3.3040   -0.9031    1.7153 N.am      1 <0>        -0.2787
      7 N5          2.2122   -2.1103   -1.6236 N.ar      1 <0>        -0.2377
      8 C1         -2.1412   -0.6583    0.3961 C.3       1 <0>         0.0122
      9 C2         -3.1022    1.3873   -0.4438 C.3       1 <0>         0.0122
     10 C3         -3.5414   -1.2716    0.5052 C.3       1 <0>         0.0114
     11 C4         -4.5025    0.7741   -0.3359 C.3       1 <0>         0.0114
     12 C5         -0.7572    0.9320   -0.7749 C.3       1 <0>         0.0767
     13 C6         -5.8872   -0.8174    0.8327 C.3       1 <0>        -0.0127
     14 C7          0.1907   -0.2108   -1.0824 C.2       1 <0>         0.2394
     15 C8          2.1340    1.1126   -0.2630 C.ar      1 <0>         0.0549
     16 C9          2.3396   -1.2787   -0.5496 C.ar      1 <0>         0.1534
     17 C10         2.8592    1.3660    0.9016 C.ar      1 <0>         0.0588
     18 C11         3.1973   -1.6030    0.5030 C.ar      1 <0>         0.0748
     19 C12         2.0635    2.1310   -1.2362 C.ar      1 <0>        -0.0391
     20 C13         2.9936    0.4029    2.0052 C.2       1 <0>         0.2501
     21 C14         3.4656    2.6205    1.0991 C.ar      1 <0>        -0.0478
     22 C15         3.9188   -2.8055    0.4279 C.ar      1 <0>        -0.0357
     23 C16         2.6744    3.3703   -1.0420 C.ar      1 <0>        -0.0600
     24 C17         3.3735    3.6170    0.1306 C.ar      1 <0>        -0.0609
     25 C18         3.8098   -3.6342   -0.6778 C.ar      1 <0>        -0.0417
     26 C19         2.9456   -3.2428   -1.6727 C.ar      1 <0>         0.0298
     27 H1         -1.8705   -0.2044    1.3601 H         1 <0>         0.0439
     28 H2         -1.4537   -1.4956    0.2450 H         1 <0>         0.0439
     29 H3         -3.0999    2.0962   -1.2806 H         1 <0>         0.0439
     30 H4         -2.8776    1.9578    0.4679 H         1 <0>         0.0439
     31 H5         -3.5446   -1.9772    1.3451 H         1 <0>         0.0439
     32 H6         -3.7656   -1.8449   -0.4046 H         1 <0>         0.0439
     33 H7         -4.7879    0.3341   -1.3013 H         1 <0>         0.0439
     34 H8         -5.2156    1.5791   -0.1206 H         1 <0>         0.0439
     35 H9         -0.7214    1.6382   -1.6108 H         1 <0>         0.0522
     36 H10        -0.4814    1.4461    0.1522 H         1 <0>         0.0522
     37 H11        -5.9314   -1.5337    1.6606 H         1 <0>         0.0391
     38 H12        -6.1832   -1.3349   -0.0871 H         1 <0>         0.0391
     39 H13        -6.6318   -0.0429    1.0474 H         1 <0>         0.0391
     40 H14         1.5461    1.9609   -2.1782 H         1 <0>         0.0636
     41 H15         3.6923   -1.4327    2.4926 H         1 <0>         0.1552
     42 H16         4.0256    2.8337    2.0070 H         1 <0>         0.0626
     43 H17         4.5771   -3.1061    1.2409 H         1 <0>         0.0638
     44 H18         2.6060    4.1362   -1.8087 H         1 <0>         0.0618
     45 H19         3.8510    4.5790    0.2906 H         1 <0>         0.0618
     46 H20         4.3719   -4.5577   -0.7468 H         1 <0>         0.0633
     47 H21         2.8039   -3.8475   -2.5618 H         1 <0>         0.0830
@<TRIPOS>BOND
     1    1   14 2
     2    2   20 2
     3    3    8 1
     4    3    9 1
     5    3   12 1
     6    4   10 1
     7    4   11 1
     8    4   13 1
     9    5   14 am
    10    5   15 1
    11    5   16 1
    12    6   18 1
    13    6   20 am
    14    6   41 1
    15    7   16 ar
    16    7   26 ar
    17    8   10 1
    18    8   27 1
    19    8   28 1
    20    9   11 1
    21    9   29 1
    22    9   30 1
    23   10   31 1
    24   10   32 1
    25   11   33 1
    26   11   34 1
    27   12   14 1
    28   12   35 1
    29   12   36 1
    30   13   37 1
    31   13   38 1
    32   13   39 1
    33   15   17 ar
    34   15   19 ar
    35   16   18 ar
    36   17   20 1
    37   17   21 ar
    38   18   22 ar
    39   19   23 ar
    40   19   40 1
    41   21   24 ar
    42   21   42 1
    43   22   25 ar
    44   22   43 1
    45   23   24 ar
    46   23   44 1
    47   24   45 1
    48   25   26 ar
    49   25   46 1
    50   26   47 1
