@<TRIPOS>MOLECULE
DB00715
   44    47     0     0     0
SMALL
USER_CHARGES

@<TRIPOS>ATOM
      1 F1         -0.3380   -5.3241   -0.2428 F         1 <0>        -0.2055
      2 O1          0.4613    1.6574   -0.0755 O.3       1 <0>        -0.4915
      3 O2          4.8493    0.1828   -1.4261 O.3       1 <0>        -0.4525
      4 O3          5.6659    0.2578    0.8402 O.3       1 <0>        -0.4526
      5 N1         -3.6668    2.3222   -0.3801 N.3       1 <0>        -0.3156
      6 C1         -1.9648    0.0471    0.3501 C.3       1 <0>        -0.0076
      7 C2         -1.6652    0.9323   -0.8880 C.3       1 <0>         0.0125
      8 C3         -3.4621    0.1191    0.7045 C.3       1 <0>        -0.0332
      9 C4         -2.2362    2.3480   -0.6840 C.3       1 <0>         0.0024
     10 C5         -3.9359    1.5637    0.8393 C.3       1 <0>        -0.0035
     11 C6         -0.1625    1.0262   -1.1759 C.3       1 <0>         0.0941
     12 C7         -1.5266   -1.3995    0.1905 C.ar      1 <0>        -0.0436
     13 C8         -1.0515   -2.1042    1.2929 C.ar      1 <0>        -0.0556
     14 C9         -1.6033   -2.0118   -1.0575 C.ar      1 <0>        -0.0556
     15 C10        -0.6495   -3.4318    1.1462 C.ar      1 <0>        -0.0262
     16 C11        -1.2015   -3.3395   -1.2042 C.ar      1 <0>        -0.0262
     17 C12         1.7647    1.3113    0.1882 C.ar      1 <0>         0.1242
     18 C13        -0.7246   -4.0496   -0.1022 C.ar      1 <0>         0.1234
     19 C14         2.5932    0.9235   -0.8600 C.ar      1 <0>         0.0256
     20 C15         2.2298    1.3579    1.5081 C.ar      1 <0>        -0.0162
     21 C16         3.8936    0.5861   -0.5453 C.ar      1 <0>         0.1697
     22 C17         4.3598    0.6288    0.7490 C.ar      1 <0>         0.1665
     23 C18         3.5513    1.0114    1.7997 C.ar      1 <0>        -0.0127
     24 C19         5.9699   -0.0224   -0.5416 C.3       1 <0>         0.2332
     25 H1         -1.4108    0.4690    1.2014 H         1 <0>         0.0353
     26 H2         -2.1590    0.5281   -1.7798 H         1 <0>         0.0352
     27 H3         -3.6537   -0.4123    1.6452 H         1 <0>         0.0283
     28 H4         -4.0572   -0.3902   -0.0658 H         1 <0>         0.0283
     29 H5         -1.7137    2.8818    0.1191 H         1 <0>         0.0428
     30 H6         -2.0878    2.9399   -1.5947 H         1 <0>         0.0428
     31 H7         -5.0137    1.5772    1.0352 H         1 <0>         0.0424
     32 H8         -3.4546    2.0473    1.6978 H         1 <0>         0.0424
     33 H9          0.0018    1.6353   -2.0733 H         1 <0>         0.0700
     34 H10         0.2369    0.0241   -1.3666 H         1 <0>         0.0700
     35 H11        -4.1633    1.8878   -1.1583 H         1 <0>         0.1219
     36 H12        -0.9895   -1.6346    2.2707 H         1 <0>         0.0621
     37 H13        -1.9932   -1.5096   -1.9353 H         1 <0>         0.0621
     38 H14        -0.2782   -3.9849    2.0039 H         1 <0>         0.0646
     39 H15        -1.2651   -3.8229   -2.1745 H         1 <0>         0.0646
     40 H16         2.2760    0.9015   -1.8960 H         1 <0>         0.0692
     41 H17         1.5647    1.6629    2.3116 H         1 <0>         0.0655
     42 H18         3.9223    1.0433    2.8177 H         1 <0>         0.0656
     43 H19         6.7917    0.6295   -0.8592 H         1 <0>         0.1166
     44 H20         6.2959   -1.0656   -0.6245 H         1 <0>         0.1166
@<TRIPOS>BOND
     1    1   18 1
     2    2   11 1
     3    2   17 1
     4    3   21 1
     5    3   24 1
     6    4   22 1
     7    4   24 1
     8    5    9 1
     9    5   10 1
    10    5   35 1
    11    6    7 1
    12    6    8 1
    13    6   12 1
    14    6   25 1
    15    7    9 1
    16    7   11 1
    17    7   26 1
    18    8   10 1
    19    8   27 1
    20    8   28 1
    21    9   29 1
    22    9   30 1
    23   10   31 1
    24   10   32 1
    25   11   33 1
    26   11   34 1
    27   12   13 ar
    28   12   14 ar
    29   13   15 ar
    30   13   36 1
    31   14   16 ar
    32   14   37 1
    33   15   18 ar
    34   15   38 1
    35   16   18 ar
    36   16   39 1
    37   17   19 ar
    38   17   20 ar
    39   19   21 ar
    40   19   40 1
    41   20   23 ar
    42   20   41 1
    43   21   22 ar
    44   22   23 ar
    45   23   42 1
    46   24   43 1
    47   24   44 1
