@<TRIPOS>MOLECULE
DB00555
   23    24     0     0     0
SMALL
USER_CHARGES

@<TRIPOS>ATOM
      1 Cl1         0.8426   -2.3671    1.2808 Cl        1 <0>        -0.0814
      2 Cl2         4.0396   -2.1923    1.2004 Cl        1 <0>        -0.0820
      3 N1         -1.1140    0.5962    1.3920 N.ar      1 <0>        -0.1424
      4 N2         -2.6592   -0.2814   -0.7316 N.ar      1 <0>        -0.1967
      5 N3         -0.6962   -0.7686   -1.9635 N.pl3     1 <0>        -0.3413
      6 N4         -2.4601    0.6216    1.4797 N.ar      1 <0>        -0.1128
      7 N5         -4.5732    0.2191    0.5319 N.pl3     1 <0>        -0.3262
      8 C1          0.8960    0.1479    0.2547 C.ar      1 <0>         0.0252
      9 C2         -0.5558    0.1392    0.2607 C.ar      1 <0>         0.1342
     10 C3          1.6481   -0.9405    0.6966 C.ar      1 <0>         0.0686
     11 C4          1.5371    1.2948   -0.2137 C.ar      1 <0>        -0.0509
     12 C5         -1.3189   -0.2936   -0.7868 C.ar      1 <0>         0.1478
     13 C6          3.0416   -0.8820    0.6702 C.ar      1 <0>         0.0599
     14 C7          2.9303    1.3533   -0.2401 C.ar      1 <0>        -0.0597
     15 C8          3.6826    0.2650    0.2019 C.ar      1 <0>        -0.0419
     16 C9         -3.1674    0.1839    0.4194 C.ar      1 <0>         0.2341
     17 H1          0.9681    2.1536   -0.5622 H         1 <0>         0.0625
     18 H2          3.4295    2.2463   -0.6048 H         1 <0>         0.0618
     19 H3          4.7676    0.3286    0.1738 H         1 <0>         0.0633
     20 H4         -1.3096   -1.0711   -2.7105 H         1 <0>         0.1438
     21 H5          0.2088   -1.2164   -1.8915 H         1 <0>         0.1438
     22 H6         -4.9957    0.5631    1.3830 H         1 <0>         0.1452
     23 H7         -5.1420   -0.0998   -0.2403 H         1 <0>         0.1452
@<TRIPOS>BOND
     1    1   10 1
     2    2   13 1
     3    3    6 ar
     4    3    9 ar
     5    4   12 ar
     6    4   16 ar
     7    5   12 1
     8    5   20 1
     9    5   21 1
    10    6   16 ar
    11    7   16 1
    12    7   22 1
    13    7   23 1
    14    8    9 1
    15    8   10 ar
    16    8   11 ar
    17    9   12 ar
    18   10   13 ar
    19   11   14 ar
    20   11   17 1
    21   13   15 ar
    22   14   15 ar
    23   14   18 1
    24   15   19 1
