@<TRIPOS>MOLECULE
DB00368
   23    23     0     0     0
SMALL
USER_CHARGES

@<TRIPOS>ATOM
      1 O1          1.8063   -0.0205    1.7789 O.3       1 <0>        -0.3859
      2 O2         -2.5563   -2.3096    0.1338 O.3       1 <0>        -0.5033
      3 O3         -4.1045   -0.0399   -0.2838 O.3       1 <0>        -0.5033
      4 N1          3.7092   -0.2471   -0.3719 N.3       1 <0>        -0.3274
      5 C1          1.4695    0.4307    0.4603 C.3       1 <0>         0.0925
      6 C2         -0.0032    0.3031    0.2640 C.ar      1 <0>        -0.0143
      7 C3          2.2689   -0.3796   -0.5795 C.3       1 <0>         0.0235
      8 C4         -0.6036   -0.9558    0.2898 C.ar      1 <0>        -0.0109
      9 C5         -0.7803    1.4423    0.0541 C.ar      1 <0>        -0.0524
     10 C6         -1.9812   -1.0752    0.1057 C.ar      1 <0>         0.1586
     11 C7         -2.1577    1.3229   -0.1299 C.ar      1 <0>        -0.0162
     12 C8         -2.7582    0.0641   -0.1041 C.ar      1 <0>         0.1582
     13 H1          1.7691    1.4847    0.4026 H         1 <0>         0.0656
     14 H2          2.0146   -0.0509   -1.5937 H         1 <0>         0.0451
     15 H3          2.0359   -1.4472   -0.5069 H         1 <0>         0.0451
     16 H4         -0.0139   -1.8519    0.4652 H         1 <0>         0.0659
     17 H5         -0.3277    2.4300    0.0311 H         1 <0>         0.0622
     18 H6         -2.7512    2.2186   -0.2924 H         1 <0>         0.0655
     19 H7          2.7720    0.0502    1.8706 H         1 <0>         0.2103
     20 H8          3.9775    0.7323   -0.4586 H         1 <0>         0.1183
     21 H9          4.2039   -0.7457   -1.1105 H         1 <0>         0.1183
     22 H10        -3.5129   -2.2049   -0.0104 H         1 <0>         0.2923
     23 H11        -4.4762    0.8493   -0.4144 H         1 <0>         0.2923
@<TRIPOS>BOND
     1    1    5 1
     2    1   19 1
     3    2   10 1
     4    2   22 1
     5    3   12 1
     6    3   23 1
     7    4    7 1
     8    4   20 1
     9    4   21 1
    10    5    6 1
    11    5    7 1
    12    5   13 1
    13    6    8 ar
    14    6    9 ar
    15    7   14 1
    16    7   15 1
    17    8   10 ar
    18    8   16 1
    19    9   11 ar
    20    9   17 1
    21   10   12 ar
    22   11   12 ar
    23   11   18 1
