@<TRIPOS>MOLECULE
DB00885
   25    27     0     0     0
SMALL
USER_CHARGES

@<TRIPOS>ATOM
      1 O1          1.5263   -2.0962    0.0511 O.2       1 <0>        -0.2665
      2 N1         -0.4758   -0.8853    0.0033 N.am      1 <0>        -0.2674
      3 N2         -0.4045    1.4937    0.0119 N.2       1 <0>        -0.2363
      4 N3          3.8940   -0.8341   -0.0057 N.2       1 <0>        -0.1329
      5 N4          3.7964    1.4281   -0.0063 N.2       1 <0>        -0.1078
      6 N5          5.0934   -0.2359   -0.0127 N.pl3     1 <0>        -0.1761
      7 N6          5.0837    1.1044   -0.0136 N.2       1 <0>        -0.0485
      8 C1         -1.0790    0.3831    0.0045 C.2       1 <0>         0.1431
      9 C2         -2.5856    0.4283   -0.0018 C.2       1 <0>        -0.0076
     10 C3          0.9199   -1.0253    0.0183 C.2       1 <0>         0.2692
     11 C4          1.6795    0.2667    0.0068 C.2       1 <0>         0.1055
     12 C5         -1.2552   -2.0367   -0.0027 C.2       1 <0>         0.0146
     13 C6         -3.2655   -0.7271   -0.0086 C.2       1 <0>        -0.0540
     14 C7          0.9567    1.3968    0.0104 C.2       1 <0>         0.0460
     15 C8         -2.5903   -1.9928   -0.0092 C.2       1 <0>        -0.0447
     16 C9         -3.2559    1.7666   -0.0009 C.3       1 <0>        -0.0362
     17 C10         3.1181    0.2487   -0.0017 C.2       1 <0>         0.2110
     18 H1         -0.7406   -2.9912   -0.0025 H         1 <0>         0.0814
     19 H2         -4.3504   -0.7430   -0.0135 H         1 <0>         0.0622
     20 H3          1.4512    2.3642    0.0067 H         1 <0>         0.0839
     21 H4         -3.1834   -2.8998   -0.0140 H         1 <0>         0.0632
     22 H5         -2.9761    2.3355    0.8917 H         1 <0>         0.0279
     23 H6         -4.3475    1.6763   -0.0065 H         1 <0>         0.0279
     24 H7         -2.9675    2.3410   -0.8873 H         1 <0>         0.0279
     25 H8          5.9580   -0.7662   -0.0175 H         1 <0>         0.2143
@<TRIPOS>BOND
     1    1   10 2
     2    2    8 1
     3    2   10 am
     4    2   12 1
     5    3    8 2
     6    3   14 1
     7    4    6 1
     8    4   17 2
     9    5    7 2
    10    5   17 1
    11    6    7 1
    12    6   25 1
    13    8    9 1
    14    9   13 2
    15    9   16 1
    16   10   11 1
    17   11   14 2
    18   11   17 1
    19   12   15 2
    20   12   18 1
    21   13   15 1
    22   13   19 1
    23   14   20 1
    24   15   21 1
    25   16   22 1
    26   16   23 1
    27   16   24 1
