@<TRIPOS>MOLECULE
DB00862
   66    69     0     0     0
SMALL
USER_CHARGES

@<TRIPOS>ATOM
      1 S1          2.9935   -1.3071    2.8174 S.o2      1 <0>         0.0610
      2 O1          2.6096   -0.3192    3.8027 O.2       1 <0>        -0.1528
      3 O2          3.4574   -2.6184    3.2176 O.2       1 <0>        -0.1528
      4 O3         -1.5445   -2.0561   -0.8766 O.3       1 <0>        -0.4915
      5 O4         -1.3789    3.9039    0.7555 O.2       1 <0>        -0.2634
      6 N1          4.1385   -0.6149    1.7483 N.pl3     1 <0>        -0.1741
      7 N2          5.5018    0.3844   -0.5778 N.3       1 <0>        -0.3001
      8 N3         -3.5370    1.1227    0.1237 N.pl3     1 <0>        -0.2324
      9 N4         -2.6773    0.0794    0.2393 N.pl3     1 <0>        -0.2742
     10 N5         -0.9277    1.6496    0.7162 N.2       1 <0>        -0.1879
     11 N6         -5.3487    2.3516   -0.1846 N.2       1 <0>        -0.2350
     12 C1          4.7282   -1.5490    0.7477 C.3       1 <0>         0.0333
     13 C2          3.7300    0.6720    1.1168 C.3       1 <0>         0.0333
     14 C3          5.9132   -0.8755    0.0573 C.3       1 <0>         0.0134
     15 C4          4.9344    1.3029    0.4195 C.3       1 <0>         0.0134
     16 C5          6.6325    1.0067   -1.2654 C.3       1 <0>        -0.0039
     17 C6          1.6334   -1.5254    1.7133 C.ar      1 <0>         0.1064
     18 C7          6.2000    2.2572   -2.0123 C.3       1 <0>        -0.0524
     19 C8          0.7059   -0.5063    1.5695 C.ar      1 <0>        -0.0211
     20 C9          1.5158   -2.7124    1.0084 C.ar      1 <0>        -0.0319
     21 C10        -0.3688   -0.6789    0.6971 C.ar      1 <0>         0.0621
     22 C11        -0.5016   -1.8685   -0.0194 C.ar      1 <0>         0.1312
     23 C12        -1.3693    0.4268    0.5442 C.2       1 <0>         0.1606
     24 C13         0.4409   -2.8852    0.1362 C.ar      1 <0>        -0.0174
     25 C14        -4.8695    1.1257   -0.1604 C.2       1 <0>         0.1297
     26 C15        -3.1319    2.4154    0.2913 C.2       1 <0>         0.1522
     27 C16        -5.6345   -0.1140   -0.4020 C.3       1 <0>         0.0070
     28 C17        -4.2720    3.1617    0.0956 C.2       1 <0>         0.0709
     29 C18        -1.7664    2.7509    0.6031 C.2       1 <0>         0.2994
     30 C19        -6.2375   -0.6997    0.8906 C.3       1 <0>        -0.0490
     31 C20        -4.4401    4.6224    0.1520 C.3       1 <0>        -0.0200
     32 C21        -7.0563   -1.9550    0.6346 C.3       1 <0>        -0.0649
     33 C22        -1.2228   -2.2962   -2.2448 C.3       1 <0>         0.0868
     34 C23        -2.3466   -1.7742   -3.1146 C.3       1 <0>        -0.0307
     35 H1          5.0872   -2.4561    1.2442 H         1 <0>         0.0456
     36 H2          3.9813   -1.8311   -0.0015 H         1 <0>         0.0456
     37 H3          2.9411    0.5078    0.3758 H         1 <0>         0.0456
     38 H4          3.3628    1.3652    1.8807 H         1 <0>         0.0456
     39 H5          6.3070   -1.5643   -0.6998 H         1 <0>         0.0440
     40 H6          6.7133   -0.6973    0.7884 H         1 <0>         0.0440
     41 H7          4.5692    2.2242   -0.0449 H         1 <0>         0.0440
     42 H8          5.6901    1.5821    1.1658 H         1 <0>         0.0440
     43 H9          7.4474    1.2517   -0.5728 H         1 <0>         0.0424
     44 H10         7.0355    0.3017   -2.0031 H         1 <0>         0.0424
     45 H11         6.9961    2.5662   -2.6991 H         1 <0>         0.0242
     46 H12         6.0193    3.1035   -1.3428 H         1 <0>         0.0242
     47 H13         5.3013    2.0806   -2.6131 H         1 <0>         0.0242
     48 H14         0.8092    0.4146    2.1360 H         1 <0>         0.0645
     49 H15         2.2385   -3.5156    1.1142 H         1 <0>         0.0638
     50 H16         0.3472   -3.8204   -0.4090 H         1 <0>         0.0655
     51 H17        -3.0175   -0.8716    0.1565 H         1 <0>         0.1890
     52 H18        -6.4500    0.1106   -1.1014 H         1 <0>         0.0344
     53 H19        -5.0136   -0.8692   -0.8983 H         1 <0>         0.0344
     54 H20        -6.8742    0.0515    1.3740 H         1 <0>         0.0267
     55 H21        -5.4338   -0.9345    1.5993 H         1 <0>         0.0267
     56 H22        -3.8052    5.1135   -0.5920 H         1 <0>         0.0293
     57 H23        -4.1727    5.0042    1.1422 H         1 <0>         0.0293
     58 H24        -5.4773    4.9084   -0.0498 H         1 <0>         0.0293
     59 H25        -7.8915   -1.7458   -0.0411 H         1 <0>         0.0230
     60 H26        -6.4386   -2.7391    0.1852 H         1 <0>         0.0230
     61 H27        -7.4657   -2.3399    1.5738 H         1 <0>         0.0230
     62 H28        -1.1041   -3.3742   -2.3986 H         1 <0>         0.0694
     63 H29        -0.2883   -1.7934   -2.5235 H         1 <0>         0.0694
     64 H30        -3.2939   -2.2557   -2.8508 H         1 <0>         0.0262
     65 H31        -2.1398   -1.9563   -4.1727 H         1 <0>         0.0262
     66 H32        -2.4841   -0.6985   -2.9613 H         1 <0>         0.0262
@<TRIPOS>BOND
     1    1    2 2
     2    1    3 2
     3    1    6 1
     4    1   17 1
     5    4   22 1
     6    4   33 1
     7    5   29 2
     8    6   12 1
     9    6   13 1
    10    7   14 1
    11    7   15 1
    12    7   16 1
    13    8    9 2
    14    8   25 1
    15    8   26 1
    16    9   23 1
    17    9   51 1
    18   10   23 2
    19   10   29 1
    20   11   25 2
    21   11   28 1
    22   12   14 1
    23   12   35 1
    24   12   36 1
    25   13   15 1
    26   13   37 1
    27   13   38 1
    28   14   39 1
    29   14   40 1
    30   15   41 1
    31   15   42 1
    32   16   18 1
    33   16   43 1
    34   16   44 1
    35   17   19 ar
    36   17   20 ar
    37   18   45 1
    38   18   46 1
    39   18   47 1
    40   19   21 ar
    41   19   48 1
    42   20   24 ar
    43   20   49 1
    44   21   22 ar
    45   21   23 1
    46   22   24 ar
    47   24   50 1
    48   25   27 1
    49   26   28 2
    50   26   29 1
    51   27   30 1
    52   27   52 1
    53   27   53 1
    54   28   31 1
    55   30   32 1
    56   30   54 1
    57   30   55 1
    58   31   56 1
    59   31   57 1
    60   31   58 1
    61   32   59 1
    62   32   60 1
    63   32   61 1
    64   33   34 1
    65   33   62 1
    66   33   63 1
    67   34   64 1
    68   34   65 1
    69   34   66 1
