@<TRIPOS>MOLECULE
DB00728
   91    96     0     0     0
SMALL
USER_CHARGES

@<TRIPOS>ATOM
      1 O1          3.7036    2.0393   -0.3362 O.3       1 <0>        -0.4553
      2 O2         -6.5656   -2.4052   -0.3035 O.3       1 <0>        -0.3902
      3 O3         -7.3223    2.9580    0.3143 O.3       1 <0>        -0.3772
      4 O4          2.6004    3.7050   -1.4961 O.2       1 <0>        -0.2512
      5 N1          4.7735   -0.5322   -0.2858 N.4       1 <0>         0.2509
      6 N2         -6.2203    0.4438   -0.4383 N.3       1 <0>        -0.2926
      7 C1          1.1716   -0.5799   -0.7946 C.3       1 <0>        -0.0238
      8 C2          1.5778    0.7491   -0.1247 C.3       1 <0>         0.0136
      9 C3         -0.0849   -1.1961   -0.1694 C.3       1 <0>        -0.0341
     10 C4         -1.2659   -0.1878   -0.3405 C.3       1 <0>        -0.0322
     11 C5         -2.6260   -0.7563    0.2146 C.3       1 <0>        -0.0246
     12 C6          3.5357   -0.3188   -1.1435 C.3       1 <0>         0.0199
     13 C7          2.8683    1.0586   -0.9177 C.3       1 <0>         0.1508
     14 C8          2.4717   -1.3816   -0.8086 C.3       1 <0>        -0.0024
     15 C9          0.4393    1.7568   -0.3495 C.3       1 <0>        -0.0435
     16 C10        -2.8895   -2.1415   -0.4465 C.3       1 <0>        -0.0329
     17 C11        -0.9026    1.2270    0.1897 C.3       1 <0>        -0.0488
     18 C12        -0.4203   -2.5492   -0.8082 C.3       1 <0>        -0.0494
     19 C13        -1.7262   -3.1267   -0.2738 C.3       1 <0>        -0.0494
     20 C14        -3.8000    0.2076   -0.1587 C.3       1 <0>        -0.0290
     21 C15         1.8641    0.6438    1.3941 C.3       1 <0>        -0.0557
     22 C16        -4.2113   -2.7851    0.0097 C.3       1 <0>        -0.0220
     23 C17        -5.1043   -0.4859   -0.5991 C.3       1 <0>         0.0370
     24 C18        -2.5689   -0.8819    1.7606 C.3       1 <0>        -0.0590
     25 C19         5.8476    0.5260   -0.6112 C.3       1 <0>        -0.0292
     26 C20         5.4185   -1.8964   -0.6056 C.3       1 <0>        -0.0292
     27 C21        -5.3665   -1.7858    0.1631 C.3       1 <0>         0.0710
     28 C22         4.3847   -0.4562    1.1827 C.3       1 <0>        -0.0111
     29 C23         6.9008   -0.2258   -1.4009 C.3       1 <0>        -0.0076
     30 C24         6.8962   -1.5955   -0.7587 C.3       1 <0>        -0.0076
     31 C25         5.5373   -0.6970    2.1010 C.2       1 <0>        -0.0465
     32 C26         3.4640    3.3361   -0.7118 C.2       1 <0>         0.3044
     33 C27        -6.3888    0.8178    0.9728 C.3       1 <0>         0.0228
     34 C28        -6.0194    1.6472   -1.2576 C.3       1 <0>         0.0228
     35 C29        -7.5509    1.7967    1.1136 C.3       1 <0>         0.0604
     36 C30        -7.1894    2.6074   -1.0637 C.3       1 <0>         0.0604
     37 C31         4.4193    4.2604   -0.0196 C.3       1 <0>         0.0332
     38 C32         5.9888    0.2012    2.9832 C.2       1 <0>        -0.0977
     39 H1          0.9283   -0.3773   -1.8517 H         1 <0>         0.0312
     40 H2          0.0971   -1.3660    0.8979 H         1 <0>         0.0306
     41 H3         -1.4049   -0.0666   -1.4270 H         1 <0>         0.0309
     42 H4          3.8597   -0.4031   -2.1893 H         1 <0>         0.0889
     43 H5          2.5777    1.3900   -1.9264 H         1 <0>         0.0797
     44 H6          2.4366   -2.1209   -1.6192 H         1 <0>         0.0324
     45 H7          2.5903   -1.9681    0.1001 H         1 <0>         0.0324
     46 H8          0.6664    2.7135    0.1353 H         1 <0>         0.0272
     47 H9          0.3239    1.9660   -1.4208 H         1 <0>         0.0272
     48 H10        -2.9836   -1.9693   -1.5300 H         1 <0>         0.0307
     49 H11        -0.9013    1.2433    1.2814 H         1 <0>         0.0268
     50 H12        -1.6791    1.9411   -0.1092 H         1 <0>         0.0268
     51 H13        -0.4941   -2.4399   -1.8978 H         1 <0>         0.0268
     52 H14         0.3860   -3.2671   -0.6175 H         1 <0>         0.0268
     53 H15        -1.6041   -3.4015    0.7805 H         1 <0>         0.0268
     54 H16        -1.9471   -4.0570   -0.8118 H         1 <0>         0.0268
     55 H17        -3.4734    0.7932   -1.0301 H         1 <0>         0.0287
     56 H18        -3.8814    0.9432    0.6410 H         1 <0>         0.0287
     57 H19         2.1006   -0.3489    1.7581 H         1 <0>         0.0236
     58 H20         2.4975    1.4486    1.7760 H         1 <0>         0.0236
     59 H21         0.9417    0.8234    1.9580 H         1 <0>         0.0236
     60 H22        -4.0732   -3.3084    0.9652 H         1 <0>         0.0293
     61 H23        -4.4821   -3.5719   -0.7074 H         1 <0>         0.0293
     62 H24        -5.0388   -0.7417   -1.6664 H         1 <0>         0.0488
     63 H25        -3.4885   -1.3019    2.1761 H         1 <0>         0.0235
     64 H26        -2.4407    0.0926    2.2421 H         1 <0>         0.0235
     65 H27        -1.7487   -1.5208    2.0979 H         1 <0>         0.0235
     66 H28         5.4711    1.3007   -1.2793 H         1 <0>         0.0815
     67 H29         6.2525    0.9702    0.3003 H         1 <0>         0.0815
     68 H30         5.1823   -2.6323    0.1685 H         1 <0>         0.0815
     69 H31         5.0129   -2.2485   -1.5614 H         1 <0>         0.0815
     70 H32        -5.4933   -1.6147    1.2352 H         1 <0>         0.0609
     71 H33         3.6880   -1.2482    1.4301 H         1 <0>         0.0862
     72 H34         4.0929    0.5592    1.3807 H         1 <0>         0.0862
     73 H35         6.6152   -0.2975   -2.4575 H         1 <0>         0.0319
     74 H36         7.8801    0.2581   -1.3467 H         1 <0>         0.0319
     75 H37         7.4079   -1.5715    0.2087 H         1 <0>         0.0319
     76 H38         7.3997   -2.3422   -1.3799 H         1 <0>         0.0319
     77 H39         5.9995   -1.6801    2.1081 H         1 <0>         0.0619
     78 H40        -6.6969   -3.2170    0.2157 H         1 <0>         0.2098
     79 H41        -5.5263    1.3133    1.4218 H         1 <0>         0.0449
     80 H42        -6.6506   -0.0394    1.5982 H         1 <0>         0.0449
     81 H43        -5.9499    1.3812   -2.3185 H         1 <0>         0.0449
     82 H44        -5.1105    2.1929   -0.9804 H         1 <0>         0.0449
     83 H45        -8.5044    1.3370    0.8258 H         1 <0>         0.0572
     84 H46        -7.6438    2.1225    2.1548 H         1 <0>         0.0572
     85 H47        -7.0132    3.5300   -1.6264 H         1 <0>         0.0572
     86 H48        -8.1310    2.1751   -1.4239 H         1 <0>         0.0572
     87 H49         5.4441    4.0200   -0.3133 H         1 <0>         0.0342
     88 H50         4.2035    5.2919   -0.3122 H         1 <0>         0.0342
     89 H51         4.2987    4.1727    1.0630 H         1 <0>         0.0342
     90 H52         6.8099   -0.0474    3.6468 H         1 <0>         0.0534
     91 H53         5.5570    1.1929    3.0617 H         1 <0>         0.0534
@<TRIPOS>BOND
     1    1   13 1
     2    1   32 1
     3    2   27 1
     4    2   78 1
     5    3   35 1
     6    3   36 1
     7    4   32 2
     8    5   12 1
     9    5   25 1
    10    5   26 1
    11    5   28 1
    12    6   23 1
    13    6   33 1
    14    6   34 1
    15    7    8 1
    16    7    9 1
    17    7   14 1
    18    7   39 1
    19    8   13 1
    20    8   15 1
    21    8   21 1
    22    9   10 1
    23    9   18 1
    24    9   40 1
    25   10   11 1
    26   10   17 1
    27   10   41 1
    28   11   16 1
    29   11   20 1
    30   11   24 1
    31   12   13 1
    32   12   14 1
    33   12   42 1
    34   13   43 1
    35   14   44 1
    36   14   45 1
    37   15   17 1
    38   15   46 1
    39   15   47 1
    40   16   19 1
    41   16   22 1
    42   16   48 1
    43   17   49 1
    44   17   50 1
    45   18   19 1
    46   18   51 1
    47   18   52 1
    48   19   53 1
    49   19   54 1
    50   20   23 1
    51   20   55 1
    52   20   56 1
    53   21   57 1
    54   21   58 1
    55   21   59 1
    56   22   27 1
    57   22   60 1
    58   22   61 1
    59   23   27 1
    60   23   62 1
    61   24   63 1
    62   24   64 1
    63   24   65 1
    64   25   29 1
    65   25   66 1
    66   25   67 1
    67   26   30 1
    68   26   68 1
    69   26   69 1
    70   27   70 1
    71   28   31 1
    72   28   71 1
    73   28   72 1
    74   29   30 1
    75   29   73 1
    76   29   74 1
    77   30   75 1
    78   30   76 1
    79   31   38 2
    80   31   77 1
    81   32   37 1
    82   33   35 1
    83   33   79 1
    84   33   80 1
    85   34   36 1
    86   34   81 1
    87   34   82 1
    88   35   83 1
    89   35   84 1
    90   36   85 1
    91   36   86 1
    92   37   87 1
    93   37   88 1
    94   37   89 1
    95   38   90 1
    96   38   91 1
