@<TRIPOS>MOLECULE
DB00818
   31    31     0     0     0
SMALL
USER_CHARGES

@<TRIPOS>ATOM
      1 O1         -0.0051    1.9054   -0.2335 O.3       1 <0>        -0.5062
      2 C1          2.4947    0.5604   -0.0886 C.3       1 <0>        -0.0181
      3 C2         -2.5286    0.6005   -0.0834 C.3       1 <0>        -0.0181
      4 C3          1.1854   -0.1529   -0.0059 C.ar      1 <0>        -0.0031
      5 C4         -1.2304   -0.1334   -0.0044 C.ar      1 <0>        -0.0031
      6 C5         -0.0170    0.5498   -0.0826 C.ar      1 <0>         0.1237
      7 C6          1.1744   -1.5392    0.1487 C.ar      1 <0>        -0.0548
      8 C7         -1.2415   -1.5197    0.1505 C.ar      1 <0>        -0.0548
      9 C8          3.3245    0.1245   -1.3101 C.3       1 <0>        -0.0585
     10 C9          3.3303    0.4044    1.1952 C.3       1 <0>        -0.0585
     11 C10        -3.3629    0.4575    1.2028 C.3       1 <0>        -0.0585
     12 C11        -3.3686    0.1780   -1.3025 C.3       1 <0>        -0.0585
     13 C12        -0.0391   -2.2225    0.2271 C.ar      1 <0>        -0.0610
     14 H1          2.3524    1.6374   -0.2216 H         1 <0>         0.0345
     15 H2         -2.3455    1.6753   -0.2037 H         1 <0>         0.0345
     16 H3          2.0976   -2.1088    0.2107 H         1 <0>         0.0622
     17 H4         -2.1735   -2.0743    0.2141 H         1 <0>         0.0622
     18 H5          3.6281   -0.9260   -1.2470 H         1 <0>         0.0235
     19 H6          4.2352    0.7281   -1.3916 H         1 <0>         0.0235
     20 H7          2.7522    0.2537   -2.2354 H         1 <0>         0.0235
     21 H8          2.7630    0.7386    2.0710 H         1 <0>         0.0235
     22 H9          4.2423    1.0086    1.1356 H         1 <0>         0.0235
     23 H10         3.6318   -0.6345    1.3662 H         1 <0>         0.0235
     24 H11        -3.6856   -0.5755    1.3709 H         1 <0>         0.0235
     25 H12        -4.2618    1.0813    1.1484 H         1 <0>         0.0235
     26 H13        -2.7858    0.7758    2.0782 H         1 <0>         0.0235
     27 H14        -2.7956    0.2952   -2.2292 H         1 <0>         0.0235
     28 H15        -4.2676    0.7990   -1.3829 H         1 <0>         0.0235
     29 H16        -3.6916   -0.8665   -1.2374 H         1 <0>         0.0235
     30 H17        -0.0476   -3.3019    0.3476 H         1 <0>         0.0618
     31 H18         0.6360    2.2814    0.3925 H         1 <0>         0.2922
@<TRIPOS>BOND
     1    1    6 1
     2    1   31 1
     3    2    4 1
     4    2    9 1
     5    2   10 1
     6    2   14 1
     7    3    5 1
     8    3   11 1
     9    3   12 1
    10    3   15 1
    11    4    6 ar
    12    4    7 ar
    13    5    6 ar
    14    5    8 ar
    15    7   13 ar
    16    7   16 1
    17    8   13 ar
    18    8   17 1
    19    9   18 1
    20    9   19 1
    21    9   20 1
    22   10   21 1
    23   10   22 1
    24   10   23 1
    25   11   24 1
    26   11   25 1
    27   11   26 1
    28   12   27 1
    29   12   28 1
    30   12   29 1
    31   13   30 1
