@<TRIPOS>MOLECULE
DB00487
   44    46     0     0     0
SMALL
USER_CHARGES

@<TRIPOS>ATOM
      1 F1         -0.8566    3.0867   -0.6772 F         1 <0>        -0.2035
      2 O1          4.1691    3.0665   -0.5261 O.2       1 <0>        -0.2865
      3 O2          6.6566    2.3090   -0.2680 O.co2     1 <0>        -0.5445
      4 O3          7.0403    0.1223    0.2838 O.co2     1 <0>        -0.5445
      5 N1         -4.3778   -0.2548    0.2291 N.4       1 <0>         0.2353
      6 N2         -1.6554    0.5040   -0.0635 N.pl3     1 <0>        -0.3175
      7 N3          3.0622   -0.7527    0.3837 N.pl3     1 <0>        -0.3460
      8 C1         -3.9644    1.1774    0.4541 C.3       1 <0>        -0.0160
      9 C2         -3.5223   -0.9022   -0.8295 C.3       1 <0>        -0.0160
     10 C3         -2.5081    1.2158    0.8974 C.3       1 <0>         0.0525
     11 C4         -2.0633   -0.8655   -0.3931 C.3       1 <0>         0.0525
     12 C5         -5.8427   -0.3724   -0.0848 C.3       1 <0>        -0.0430
     13 C6         -0.3004    0.8517   -0.1099 C.ar      1 <0>         0.0677
     14 C7          0.6731   -0.1165    0.1576 C.ar      1 <0>        -0.0136
     15 C8          2.0442    0.1943    0.1204 C.ar      1 <0>         0.0547
     16 C9          0.0724    2.1548   -0.4212 C.ar      1 <0>         0.1451
     17 C10         2.3957    1.5269   -0.1989 C.ar      1 <0>         0.0486
     18 C11         1.4202    2.4970   -0.4668 C.ar      1 <0>        -0.0118
     19 C12         3.8285    1.9219   -0.2547 C.2       1 <0>         0.1983
     20 C13         2.6810   -2.1241    0.7122 C.3       1 <0>         0.0205
     21 C14         4.3864   -0.3585    0.3250 C.2       1 <0>         0.0176
     22 C15         4.8287    0.8680    0.0348 C.2       1 <0>         0.0607
     23 C16         2.5750   -2.9834   -0.5306 C.3       1 <0>        -0.0471
     24 C17         6.3179    1.1243    0.0149 C.2       1 <0>         0.0767
     25 H1         -4.2243   -0.7658    1.1095 H         1 <0>         0.2032
     26 H2         -4.6160    1.5930    1.2296 H         1 <0>         0.0830
     27 H3         -4.1189    1.7188   -0.4862 H         1 <0>         0.0830
     28 H4         -3.6812   -0.3522   -1.7643 H         1 <0>         0.0830
     29 H5         -3.8648   -1.9354   -0.9488 H         1 <0>         0.0830
     30 H6         -2.2173    2.2649    1.0167 H         1 <0>         0.0516
     31 H7         -2.4029    0.7461    1.8840 H         1 <0>         0.0516
     32 H8         -1.9233   -1.5178    0.4784 H         1 <0>         0.0516
     33 H9         -1.4596   -1.2658   -1.2171 H         1 <0>         0.0516
     34 H10        -6.0450    0.1608   -1.0175 H         1 <0>         0.0778
     35 H11        -6.0844   -1.4343   -0.1795 H         1 <0>         0.0778
     36 H12        -6.4030    0.0640    0.7463 H         1 <0>         0.0778
     37 H13         0.3489   -1.1223    0.3989 H         1 <0>         0.0658
     38 H14         1.6923    3.5200   -0.7114 H         1 <0>         0.0654
     39 H15         3.4581   -2.5658    1.3519 H         1 <0>         0.0489
     40 H16         1.7792   -2.1899    1.3294 H         1 <0>         0.0489
     41 H17         5.0582   -1.1815    0.5440 H         1 <0>         0.0817
     42 H18         1.7936   -2.6189   -1.2051 H         1 <0>         0.0247
     43 H19         3.5176   -2.9929   -1.0880 H         1 <0>         0.0247
     44 H20         2.3326   -4.0157   -0.2595 H         1 <0>         0.0247
@<TRIPOS>BOND
     1    1   16 1
     2    2   19 2
     3    3   24 2
     4    4   24 1
     5    5    8 1
     6    5    9 1
     7    5   12 1
     8    5   25 1
     9    6   10 1
    10    6   11 1
    11    6   13 1
    12    7   15 1
    13    7   20 1
    14    7   21 2
    15    8   10 1
    16    8   26 1
    17    8   27 1
    18    9   11 1
    19    9   28 1
    20    9   29 1
    21   10   30 1
    22   10   31 1
    23   11   32 1
    24   11   33 1
    25   12   34 1
    26   12   35 1
    27   12   36 1
    28   13   14 ar
    29   13   16 ar
    30   14   15 ar
    31   14   37 1
    32   15   17 ar
    33   16   18 ar
    34   17   18 ar
    35   17   19 1
    36   18   38 1
    37   19   22 1
    38   20   23 1
    39   20   39 1
    40   20   40 1
    41   21   22 1
    42   21   41 1
    43   22   24 1
    44   23   42 1
    45   23   43 1
    46   23   44 1
