@<TRIPOS>MOLECULE
DB00900
   29    31     0     0     0
SMALL
USER_CHARGES

@<TRIPOS>ATOM
      1 O1          1.4530   -0.0663   -0.9789 O.3       1 <0>        -0.3510
      2 O2          3.9932   -1.1719   -1.5202 O.3       1 <0>        -0.3925
      3 O3         -4.6849   -2.3487    0.6658 O.2       1 <0>        -0.2634
      4 N1         -0.7390   -0.2735   -0.1047 N.pl3     1 <0>        -0.2894
      5 N2         -2.7543    1.0227   -0.5321 N.pl3     1 <0>        -0.3303
      6 N3         -1.7411   -2.1654    0.5669 N.2       1 <0>        -0.2286
      7 N4         -4.8066   -0.1602   -0.0954 N.2       1 <0>        -0.1976
      8 C1          0.3347    0.6626   -0.4414 C.3       1 <0>         0.1383
      9 C2          0.8390    1.4733    0.7478 C.3       1 <0>        -0.0048
     10 C3          2.1494    0.8048    1.0944 C.3       1 <0>        -0.0203
     11 C4          2.6328    0.3397   -0.2668 C.3       1 <0>         0.0843
     12 C5          3.6169   -0.8115   -0.2004 C.3       1 <0>         0.0705
     13 C6         -2.0736   -0.0658   -0.1606 C.2       1 <0>         0.1469
     14 C7         -0.5838   -1.5652    0.3440 C.cat     1 <0>         0.1004
     15 C8         -2.6769   -1.2217    0.2495 C.2       1 <0>         0.1720
     16 C9         -4.1263   -1.3213    0.3012 C.2       1 <0>         0.3006
     17 C10        -4.1282    0.8914   -0.4700 C.2       1 <0>         0.0988
     18 H1         -0.0521    1.3161   -1.2312 H         1 <0>         0.0839
     19 H2          0.1429    1.5178    1.5909 H         1 <0>         0.0309
     20 H3          1.0356    2.5033    0.4255 H         1 <0>         0.0309
     21 H4          2.8572    1.4727    1.5930 H         1 <0>         0.0292
     22 H5          1.9592   -0.0496    1.7549 H         1 <0>         0.0292
     23 H6          3.0672    1.1745   -0.8314 H         1 <0>         0.0620
     24 H7          3.1728   -1.6947    0.2703 H         1 <0>         0.0583
     25 H8          4.5180   -0.5316    0.3530 H         1 <0>         0.0583
     26 H9          0.3881   -2.0152    0.4944 H         1 <0>         0.1030
     27 H10        -2.3207    1.8884   -0.8354 H         1 <0>         0.1682
     28 H11         3.1823   -1.4117   -2.0007 H         1 <0>         0.2095
     29 H12        -4.6547    1.8070   -0.7825 H         1 <0>         0.1028
@<TRIPOS>BOND
     1    1    8 1
     2    1   11 1
     3    2   12 1
     4    2   28 1
     5    3   16 2
     6    4    8 1
     7    4   13 1
     8    4   14 2
     9    5   13 2
    10    5   17 1
    11    5   27 1
    12    6   14 1
    13    6   15 2
    14    7   16 1
    15    7   17 2
    16    8    9 1
    17    8   18 1
    18    9   10 1
    19    9   19 1
    20    9   20 1
    21   10   11 1
    22   10   21 1
    23   10   22 1
    24   11   12 1
    25   11   23 1
    26   12   24 1
    27   12   25 1
    28   13   15 1
    29   14   26 1
    30   15   16 1
    31   17   29 1
