@<TRIPOS>MOLECULE
DB00291
   38    38     0     0     0
SMALL
USER_CHARGES

@<TRIPOS>ATOM
      1 Cl1         4.3119   -3.6984   -0.1414 Cl        1 <0>        -0.1238
      2 Cl2         4.1945    3.5423   -1.2941 Cl        1 <0>        -0.1238
      3 O1         -4.9755   -1.0581   -2.4553 O.3       1 <0>        -0.4806
      4 O2         -5.5697    0.9101   -1.4963 O.2       1 <0>        -0.2510
      5 N1          2.6644   -0.0114   -0.1362 N.pl3     1 <0>        -0.3276
      6 C1          1.3350    0.0418    0.3322 C.ar      1 <0>         0.0298
      7 C2         -2.7005    0.2037    1.7522 C.3       1 <0>        -0.0272
      8 C3         -1.2805    0.1469    1.2524 C.ar      1 <0>        -0.0472
      9 C4         -3.7386    0.5673    0.6808 C.3       1 <0>        -0.0390
     10 C5          3.2118   -1.2502   -0.6519 C.3       1 <0>         0.0257
     11 C6          3.4956    1.1759   -0.1209 C.3       1 <0>         0.0257
     12 C7          0.8169    1.2390    0.8259 C.ar      1 <0>        -0.0404
     13 C8          0.5381   -1.1028    0.3012 C.ar      1 <0>        -0.0404
     14 C9         -0.4979    1.2919    1.2885 C.ar      1 <0>        -0.0568
     15 C10        -0.7768   -1.0499    0.7637 C.ar      1 <0>        -0.0568
     16 C11        -3.8127   -0.4319   -0.4776 C.3       1 <0>         0.0451
     17 C12         3.6467   -2.1675    0.4804 C.3       1 <0>         0.0383
     18 C13         3.1856    2.0741   -1.3081 C.3       1 <0>         0.0383
     19 C14        -4.8644   -0.0892   -1.5098 C.2       1 <0>         0.3047
     20 H1         -2.7656    0.9328    2.5706 H         1 <0>         0.0313
     21 H2         -2.9661   -0.7608    2.2046 H         1 <0>         0.0313
     22 H3         -3.5180    1.5656    0.2811 H         1 <0>         0.0274
     23 H4         -4.7239    0.6385    1.1585 H         1 <0>         0.0274
     24 H5          2.5210   -1.7465   -1.3445 H         1 <0>         0.0475
     25 H6          4.0908   -1.0285   -1.2729 H         1 <0>         0.0475
     26 H7          3.4279    1.7124    0.8333 H         1 <0>         0.0475
     27 H8          4.5521    0.8792   -0.1792 H         1 <0>         0.0475
     28 H9          1.3828    2.1622    0.8799 H         1 <0>         0.0636
     29 H10         0.8779   -2.0620   -0.0729 H         1 <0>         0.0636
     30 H11        -0.8935    2.2291    1.6698 H         1 <0>         0.0621
     31 H12        -1.3879   -1.9478    0.7372 H         1 <0>         0.0621
     32 H13        -2.8576   -0.4674   -1.0111 H         1 <0>         0.0378
     33 H14        -4.0398   -1.4286   -0.0828 H         1 <0>         0.0378
     34 H15         2.8285   -2.4253    1.1573 H         1 <0>         0.0445
     35 H16         4.4299   -1.6931    1.0813 H         1 <0>         0.0445
     36 H17         2.1434    2.4021   -1.3314 H         1 <0>         0.0445
     37 H18         3.3848    1.5517   -2.2498 H         1 <0>         0.0445
     38 H19        -5.6707   -0.8472   -3.1147 H         1 <0>         0.2951
@<TRIPOS>BOND
     1    1   17 1
     2    2   18 1
     3    3   19 1
     4    3   38 1
     5    4   19 2
     6    5    6 1
     7    5   10 1
     8    5   11 1
     9    6   12 ar
    10    6   13 ar
    11    7    8 1
    12    7    9 1
    13    7   20 1
    14    7   21 1
    15    8   14 ar
    16    8   15 ar
    17    9   16 1
    18    9   22 1
    19    9   23 1
    20   10   17 1
    21   10   24 1
    22   10   25 1
    23   11   18 1
    24   11   26 1
    25   11   27 1
    26   12   14 ar
    27   12   28 1
    28   13   15 ar
    29   13   29 1
    30   14   30 1
    31   15   31 1
    32   16   19 1
    33   16   32 1
    34   16   33 1
    35   17   34 1
    36   17   35 1
    37   18   36 1
    38   18   37 1
