@<TRIPOS>MOLECULE
DB00582
   39    41     0     0     0
SMALL
USER_CHARGES

@<TRIPOS>ATOM
      1 F1          0.9906   -1.0806   -2.1597 F         1 <0>        -0.2050
      2 F2         -2.8827   -1.0800   -2.2753 F         1 <0>        -0.2020
      3 F3          5.1161   -2.2914   -0.1841 F         1 <0>        -0.2054
      4 O1         -0.2090    0.4609    1.5980 O.3       1 <0>        -0.3814
      5 N1          0.7788    2.2986   -0.4546 N.pl3     1 <0>        -0.2489
      6 N2         -2.9183   -0.0554    1.2067 N.ar      1 <0>        -0.2371
      7 N3          0.4472    3.2759    0.3823 N.2       1 <0>        -0.1583
      8 N4          2.5244    3.5697   -0.5297 N.2       1 <0>        -0.2228
      9 N5         -5.0421    0.4618    0.1920 N.ar      1 <0>        -0.2408
     10 C1         -0.0084   -0.0271    0.2640 C.3       1 <0>         0.1209
     11 C2         -1.1281   -1.1014   -0.0388 C.3       1 <0>         0.0362
     12 C3         -0.1564    1.1954   -0.6975 C.3       1 <0>         0.0768
     13 C4          1.3922   -0.6467    0.1389 C.ar      1 <0>         0.0216
     14 C5         -1.0381   -2.3570    0.8471 C.3       1 <0>        -0.0538
     15 C6         -2.5500   -0.5404    0.0213 C.ar      1 <0>         0.0855
     16 C7          1.7866   -1.1327   -1.0828 C.ar      1 <0>         0.1321
     17 C8          2.1872   -0.6860    1.2576 C.ar      1 <0>        -0.0503
     18 C9         -3.3063   -0.5800   -1.1103 C.ar      1 <0>         0.1629
     19 C10         3.0586   -1.6946   -1.1931 C.ar      1 <0>         0.0092
     20 C11         3.4589   -1.2479    1.1473 C.ar      1 <0>        -0.0259
     21 C12         1.9982    2.4613   -0.9967 C.cat     1 <0>         0.1144
     22 C13         3.8948   -1.7521   -0.0781 C.ar      1 <0>         0.1261
     23 C14        -4.5732   -0.0532   -0.9636 C.ar      1 <0>         0.0663
     24 C15        -4.1746    0.4293    1.2217 C.ar      1 <0>         0.1164
     25 C16         1.5457    4.0300    0.3039 C.2       1 <0>         0.1379
     26 H1         -0.9694   -1.4635   -1.0621 H         1 <0>         0.0394
     27 H2         -1.1489    1.6505   -0.5882 H         1 <0>         0.0541
     28 H3         -0.0500    0.9216   -1.7525 H         1 <0>         0.0541
     29 H4         -1.1309   -2.1068    1.9097 H         1 <0>         0.0237
     30 H5         -0.0897   -2.8842    0.7059 H         1 <0>         0.0237
     31 H6         -1.8403   -3.0636    0.6041 H         1 <0>         0.0237
     32 H7          0.3453    1.2465    1.7384 H         1 <0>         0.2107
     33 H8          1.8853   -0.3129    2.2294 H         1 <0>         0.0623
     34 H9          3.3981   -2.0867   -2.1471 H         1 <0>         0.0675
     35 H10         4.1100   -1.2946    2.0153 H         1 <0>         0.0646
     36 H11         2.4542    1.7866   -1.7070 H         1 <0>         0.1044
     37 H12        -5.2671   -0.0298   -1.7971 H         1 <0>         0.0860
     38 H13        -4.5247    0.8367    2.1622 H         1 <0>         0.1047
     39 H14         1.6360    4.9434    0.8727 H         1 <0>         0.1065
@<TRIPOS>BOND
     1    1   16 1
     2    2   18 1
     3    3   22 1
     4    4   10 1
     5    4   32 1
     6    5    7 1
     7    5   12 1
     8    5   21 2
     9    6   15 ar
    10    6   24 ar
    11    7   25 1
    12    8   21 1
    13    8   25 2
    14    9   23 ar
    15    9   24 ar
    16   10   11 1
    17   10   12 1
    18   10   13 1
    19   11   14 1
    20   11   15 1
    21   11   26 1
    22   12   27 1
    23   12   28 1
    24   13   16 ar
    25   13   17 ar
    26   14   29 1
    27   14   30 1
    28   14   31 1
    29   15   18 ar
    30   16   19 ar
    31   17   20 ar
    32   17   33 1
    33   18   23 ar
    34   19   22 ar
    35   19   34 1
    36   20   22 ar
    37   20   35 1
    38   21   36 1
    39   23   37 1
    40   24   38 1
    41   25   39 1
