@<TRIPOS>MOLECULE
DB00553
   24    26     0     0     0
SMALL
USER_CHARGES

@<TRIPOS>ATOM
      1 O1          2.7348   -0.0342    0.3844 O.3       1 <0>        -0.4591
      2 O2         -1.9087   -1.3926    0.3559 O.3       1 <0>        -0.4183
      3 O3          0.7371   -2.1409    0.6373 O.3       1 <0>        -0.4884
      4 O4         -4.1337   -1.9343    0.3233 O.2       1 <0>        -0.2452
      5 C1          1.1104    1.4947    0.0251 C.ar      1 <0>         0.0246
      6 C2          1.3894    0.1542    0.2747 C.ar      1 <0>         0.1799
      7 C3         -1.2416    0.9213   -0.0094 C.ar      1 <0>         0.0221
      8 C4         -0.9002   -0.4075    0.2416 C.ar      1 <0>         0.1841
      9 C5          0.4207   -0.8393    0.3925 C.ar      1 <0>         0.2061
     10 C6         -0.2335    1.8916   -0.1211 C.ar      1 <0>        -0.0401
     11 C7          2.3701    2.1491   -0.0167 C.2       1 <0>        -0.0160
     12 C8         -2.6472    1.2680   -0.1499 C.2       1 <0>        -0.0442
     13 C9          3.3192    1.1790    0.2069 C.2       1 <0>         0.0933
     14 C10        -3.5900    0.3289   -0.0402 C.2       1 <0>         0.0236
     15 C11        -3.2578   -1.0822    0.2245 C.2       1 <0>         0.3373
     16 C12         1.5664   -2.7977   -0.3197 C.3       1 <0>         0.0791
     17 H1         -0.4764    2.9326   -0.3165 H         1 <0>         0.0632
     18 H2          2.5617    3.1989   -0.1887 H         1 <0>         0.0655
     19 H3         -2.9166    2.3003   -0.3452 H         1 <0>         0.0627
     20 H4          4.3977    1.1902    0.2667 H         1 <0>         0.1030
     21 H5         -4.6390    0.5841   -0.1444 H         1 <0>         0.0689
     22 H6          1.3106   -2.5008   -1.3425 H         1 <0>         0.0660
     23 H7          1.4066   -3.8754   -0.2234 H         1 <0>         0.0660
     24 H8          2.6200   -2.5883   -0.1151 H         1 <0>         0.0660
@<TRIPOS>BOND
     1    1    6 1
     2    1   13 1
     3    2    8 1
     4    2   15 1
     5    3    9 1
     6    3   16 1
     7    4   15 2
     8    5    6 ar
     9    5   10 ar
    10    5   11 1
    11    6    9 ar
    12    7    8 ar
    13    7   10 ar
    14    7   12 1
    15    8    9 ar
    16   10   17 1
    17   11   13 2
    18   11   18 1
    19   12   14 2
    20   12   19 1
    21   13   20 1
    22   14   15 1
    23   14   21 1
    24   16   22 1
    25   16   23 1
    26   16   24 1
