@<TRIPOS>MOLECULE
DB00352
   16    17     0     0     0
SMALL
USER_CHARGES

@<TRIPOS>ATOM
      1 S1         -0.7955    3.2128    0.0008 S.2       1 <0>        -0.0284
      2 N1          0.8745   -0.9813    0.0014 N.pl3     1 <0>        -0.3111
      3 N2         -2.3077    0.3434   -0.0004 N.pl3     1 <0>        -0.3411
      4 N3         -1.4356   -1.7123    0.0001 N.2       1 <0>        -0.2183
      5 N4          1.2487    1.4093    0.0000 N.2       1 <0>        -0.2069
      6 N5          3.0136   -0.1333   -0.0005 N.pl3     1 <0>        -0.3289
      7 C1         -0.9488    0.5150    0.0006 C.2       1 <0>         0.1163
      8 C2         -0.4534   -0.7679    0.0007 C.cat     1 <0>         0.1612
      9 C3         -0.1122    1.6853    0.0005 C.2       1 <0>         0.1380
     10 C4          1.6715    0.1618    0.0005 C.2       1 <0>         0.1929
     11 C5         -2.5486   -1.0075   -0.0005 C.2       1 <0>         0.0962
     12 H1          1.2948   -1.9047    0.0015 H         1 <0>         0.1700
     13 H2         -3.0055    1.0755   -0.0009 H         1 <0>         0.1669
     14 H3         -3.5530   -1.4065   -0.0010 H         1 <0>         0.1027
     15 H4          3.3451   -1.0917   -0.0010 H         1 <0>         0.1451
     16 H5          3.7120    0.6021   -0.0017 H         1 <0>         0.1451
@<TRIPOS>BOND
     1    1    9 2
     2    2    8 2
     3    2   10 1
     4    2   12 1
     5    3    7 2
     6    3   11 1
     7    3   13 1
     8    4    8 1
     9    4   11 2
    10    5    9 1
    11    5   10 2
    12    6   10 1
    13    6   15 1
    14    6   16 1
    15    7    8 1
    16    7    9 1
    17   11   14 1
