@<TRIPOS>MOLECULE
DB00992
   21    20     0     0     0
SMALL
USER_CHARGES

@<TRIPOS>ATOM
      1 O1         -3.0764    0.6355    0.0527 O.3       1 <0>        -0.4679
      2 O2          1.8467    1.6349    0.2300 O.2       1 <0>        -0.2960
      3 O3         -2.1164   -1.4527   -0.1458 O.2       1 <0>        -0.2509
      4 N1          4.2384    0.4086    0.1777 N.3       1 <0>        -0.3238
      5 C1          0.4995   -0.3542   -0.0079 C.3       1 <0>         0.0171
      6 C2         -0.7343    0.5418    0.0552 C.3       1 <0>         0.0516
      7 C3          1.8121    0.4107    0.1127 C.2       1 <0>         0.1473
      8 C4          3.0647   -0.4450    0.0666 C.3       1 <0>         0.0524
      9 C5         -2.0288   -0.2386   -0.0244 C.2       1 <0>         0.3072
     10 C6         -4.3781    0.0448   -0.0181 C.3       1 <0>         0.0817
     11 H1          0.4652   -1.0899    0.8040 H         1 <0>         0.0347
     12 H2          0.5130   -0.9000   -0.9584 H         1 <0>         0.0347
     13 H3         -0.7326    1.1033    0.9968 H         1 <0>         0.0382
     14 H4         -0.7128    1.2568   -0.7754 H         1 <0>         0.0382
     15 H5          3.0391   -1.1490    0.9032 H         1 <0>         0.0500
     16 H6          3.0878   -0.9962   -0.8779 H         1 <0>         0.0500
     17 H7          4.2885    1.0283   -0.6302 H         1 <0>         0.1186
     18 H8          5.0783   -0.1677    0.1429 H         1 <0>         0.1186
     19 H9         -5.1191    0.8452    0.0546 H         1 <0>         0.0661
     20 H10        -4.5257   -0.6472    0.8166 H         1 <0>         0.0661
     21 H11        -4.5091   -0.4693   -0.9750 H         1 <0>         0.0661
@<TRIPOS>BOND
     1    1    9 1
     2    1   10 1
     3    2    7 2
     4    3    9 2
     5    4    8 1
     6    4   17 1
     7    4   18 1
     8    5    6 1
     9    5    7 1
    10    5   11 1
    11    5   12 1
    12    6    9 1
    13    6   13 1
    14    6   14 1
    15    7    8 1
    16    8   15 1
    17    8   16 1
    18   10   19 1
    19   10   20 1
    20   10   21 1
