@<TRIPOS>MOLECULE
DB00712
   31    32     0     0     0
SMALL
USER_CHARGES

@<TRIPOS>ATOM
      1 F1         -0.8047    0.2000   -2.2440 F         1 <0>        -0.2048
      2 O1          5.2778    1.1363    0.0138 O.3       1 <0>        -0.4802
      3 O2          3.3125    2.1244   -0.5315 O.2       1 <0>        -0.2503
      4 C1          3.2597   -0.1325    0.4014 C.3       1 <0>         0.0785
      5 C2          1.7723   -0.0926    0.3018 C.ar      1 <0>        -0.0312
      6 C3         -1.0107   -0.0181    0.1151 C.ar      1 <0>         0.0173
      7 C4          1.1600    0.0379   -0.9448 C.ar      1 <0>        -0.0219
      8 C5          0.9932   -0.1857    1.4550 C.ar      1 <0>        -0.0570
      9 C6         -0.2313    0.0749   -1.0382 C.ar      1 <0>         0.1313
     10 C7         -0.3981   -0.1484    1.3617 C.ar      1 <0>        -0.0510
     11 C8          3.9054   -1.3163   -0.3473 C.3       1 <0>        -0.0482
     12 C9         -2.4540    0.0198    0.0234 C.ar      1 <0>        -0.0151
     13 C10         3.9225    1.1608   -0.0863 C.2       1 <0>         0.3119
     14 C11        -3.1259    1.2401    0.0928 C.ar      1 <0>        -0.0539
     15 C12        -3.1738   -1.1649   -0.1323 C.ar      1 <0>        -0.0539
     16 C13        -4.5176    1.2758    0.0064 C.ar      1 <0>        -0.0612
     17 C14        -4.5655   -1.1291   -0.2190 C.ar      1 <0>        -0.0612
     18 C15        -5.2375    0.0912   -0.1497 C.ar      1 <0>        -0.0617
     19 H1          3.5391   -0.2201    1.4604 H         1 <0>         0.0459
     20 H2          1.7488    0.1107   -1.8552 H         1 <0>         0.0649
     21 H3          1.4538   -0.2879    2.4342 H         1 <0>         0.0621
     22 H4         -0.9904   -0.2224    2.2709 H         1 <0>         0.0625
     23 H5          3.4320   -2.2612   -0.0586 H         1 <0>         0.0241
     24 H6          3.8098   -1.2078   -1.4335 H         1 <0>         0.0241
     25 H7          4.9736   -1.3964   -0.1184 H         1 <0>         0.0241
     26 H8         -2.5802    2.1729    0.2144 H         1 <0>         0.0624
     27 H9         -2.6657   -2.1248   -0.1879 H         1 <0>         0.0624
     28 H10        -5.0410    2.2259    0.0604 H         1 <0>         0.0618
     29 H11        -5.1262   -2.0514   -0.3404 H         1 <0>         0.0618
     30 H12        -6.3211    0.1191   -0.2171 H         1 <0>         0.0618
     31 H13         5.6827    1.9699   -0.3076 H         1 <0>         0.2951
@<TRIPOS>BOND
     1    1    9 1
     2    2   13 1
     3    2   31 1
     4    3   13 2
     5    4    5 1
     6    4   11 1
     7    4   13 1
     8    4   19 1
     9    5    7 ar
    10    5    8 ar
    11    6    9 ar
    12    6   10 ar
    13    6   12 1
    14    7    9 ar
    15    7   20 1
    16    8   10 ar
    17    8   21 1
    18   10   22 1
    19   11   23 1
    20   11   24 1
    21   11   25 1
    22   12   14 ar
    23   12   15 ar
    24   14   16 ar
    25   14   26 1
    26   15   17 ar
    27   15   27 1
    28   16   18 ar
    29   16   28 1
    30   17   18 ar
    31   17   29 1
    32   18   30 1
