@<TRIPOS>MOLECULE
DB00509
   35    36     0     0     0
SMALL
USER_CHARGES

@<TRIPOS>ATOM
      1 I1          1.0443   -2.5042   -2.5851 I         1 <0>        -0.0400
      2 I2          0.8959   -0.8670    3.2925 I         1 <0>        -0.0400
      3 I3          7.1863   -0.3614    0.1518 I         1 <0>        -0.0399
      4 I4          2.4376    3.2967   -0.9969 I         1 <0>        -0.0399
      5 O1          2.0231   -1.8821    0.4354 O.3       1 <0>        -0.4539
      6 O2         -2.0427    2.0111    0.3643 O.3       1 <0>        -0.4795
      7 O3         -3.9516    1.9955    1.5898 O.2       1 <0>        -0.2492
      8 O4          5.4867    2.2776   -0.6317 O.3       1 <0>        -0.5047
      9 N1         -5.2632    0.7918   -0.4993 N.3       1 <0>        -0.3181
     10 C1         -3.5117   -0.8461    0.0065 C.3       1 <0>        -0.0020
     11 C2         -3.8175    0.6029   -0.4041 C.3       1 <0>         0.1072
     12 C3         -2.0305   -1.1238    0.1214 C.ar      1 <0>        -0.0432
     13 C4         -1.3960   -0.9241    1.3361 C.ar      1 <0>        -0.0418
     14 C5         -1.3368   -1.5718   -0.9907 C.ar      1 <0>        -0.0418
     15 C6          0.6846   -1.6310    0.3314 C.ar      1 <0>         0.1545
     16 C7          0.0305   -1.8271   -0.8850 C.ar      1 <0>         0.0569
     17 C8         -0.0287   -1.1796    1.4419 C.ar      1 <0>         0.0569
     18 C9         -3.3140    1.6058    0.6197 C.2       1 <0>         0.3220
     19 C10         2.8912   -0.8397    0.1679 C.ar      1 <0>         0.1307
     20 C11         2.3761    0.3948   -0.1883 C.ar      1 <0>        -0.0026
     21 C12         4.2553   -1.0548    0.2627 C.ar      1 <0>        -0.0026
     22 C13         5.1314   -0.0033   -0.0073 C.ar      1 <0>         0.0592
     23 C14         3.2519    1.4464   -0.4581 C.ar      1 <0>         0.0592
     24 C15         4.6296    1.2473   -0.3676 C.ar      1 <0>         0.1432
     25 H1         -3.9530   -1.5446   -0.7175 H         1 <0>         0.0334
     26 H2         -3.9900   -1.0795    0.9682 H         1 <0>         0.0334
     27 H3         -3.3709    0.8382   -1.3774 H         1 <0>         0.0577
     28 H4         -1.9632   -0.5761    2.1957 H         1 <0>         0.0632
     29 H5         -1.8595   -1.7175   -1.9328 H         1 <0>         0.0632
     30 H6         -5.6500    0.1378   -1.1788 H         1 <0>         0.1190
     31 H7         -5.4644    1.7245   -0.8586 H         1 <0>         0.1190
     32 H8          1.3145    0.5997   -0.2726 H         1 <0>         0.0666
     33 H9          4.6240   -2.0372    0.5460 H         1 <0>         0.0666
     34 H10        -1.7177    2.6434    1.0400 H         1 <0>         0.2951
     35 H11         6.3982    1.9570   -0.5195 H         1 <0>         0.2922
@<TRIPOS>BOND
     1    1   16 1
     2    2   17 1
     3    3   22 1
     4    4   23 1
     5    5   15 1
     6    5   19 1
     7    6   18 1
     8    6   34 1
     9    7   18 2
    10    8   24 1
    11    8   35 1
    12    9   11 1
    13    9   30 1
    14    9   31 1
    15   10   11 1
    16   10   12 1
    17   10   25 1
    18   10   26 1
    19   11   18 1
    20   11   27 1
    21   12   13 ar
    22   12   14 ar
    23   13   17 ar
    24   13   28 1
    25   14   16 ar
    26   14   29 1
    27   15   16 ar
    28   15   17 ar
    29   19   20 ar
    30   19   21 ar
    31   20   23 ar
    32   20   32 1
    33   21   22 ar
    34   21   33 1
    35   22   24 ar
    36   23   24 ar
