@<TRIPOS>MOLECULE
DB00434
   43    46     0     0     0
SMALL
USER_CHARGES

@<TRIPOS>ATOM
      1 N1          3.5580    0.1425    0.0507 N.3       1 <0>        -0.3047
      2 C1          0.7684    0.0533   -0.6866 C.2       1 <0>        -0.0588
      3 C2          1.6366   -1.1681   -0.8198 C.3       1 <0>        -0.0180
      4 C3          1.5278    1.3517   -0.7129 C.3       1 <0>        -0.0180
      5 C4          2.7972   -1.1119    0.1797 C.3       1 <0>         0.0023
      6 C5          2.6926    1.3112    0.2828 C.3       1 <0>         0.0023
      7 C6         -0.5604   -0.0105   -0.5258 C.2       1 <0>        -0.0103
      8 C7         -1.3209    1.2537   -0.4047 C.ar      1 <0>        -0.0102
      9 C8         -1.1955   -1.3414   -0.3951 C.ar      1 <0>        -0.0102
     10 C9          4.6889    0.1518    0.9783 C.3       1 <0>        -0.0127
     11 C10        -2.1457    1.5034    0.7089 C.ar      1 <0>        -0.0173
     12 C11        -1.9929   -1.6609    0.7205 C.ar      1 <0>        -0.0173
     13 C12        -1.2445    2.2090   -1.4357 C.ar      1 <0>        -0.0534
     14 C13        -1.0269   -2.2922   -1.4192 C.ar      1 <0>        -0.0534
     15 C14        -2.2747    0.5872    1.8553 C.2       1 <0>        -0.0534
     16 C15        -2.2099   -0.7533    1.8605 C.2       1 <0>        -0.0534
     17 C16        -2.8417    2.7234    0.7792 C.ar      1 <0>        -0.0540
     18 C17        -2.5685   -2.9416    0.7999 C.ar      1 <0>        -0.0540
     19 C18        -1.9538    3.4064   -1.3551 C.ar      1 <0>        -0.0611
     20 C19        -1.6183   -3.5515   -1.3299 C.ar      1 <0>        -0.0611
     21 C20        -2.7496    3.6651   -0.2461 C.ar      1 <0>        -0.0612
     22 C21        -2.3862   -3.8774   -0.2186 C.ar      1 <0>        -0.0612
     23 H1          1.1658   -2.1289   -0.6219 H         1 <0>         0.0323
     24 H2          2.0331   -1.2092   -1.8427 H         1 <0>         0.0323
     25 H3          1.9161    1.5140   -1.7269 H         1 <0>         0.0323
     26 H4          0.9612    2.2425   -0.4413 H         1 <0>         0.0323
     27 H5          2.4132   -1.2298    1.2024 H         1 <0>         0.0429
     28 H6          3.4598   -1.9637   -0.0187 H         1 <0>         0.0429
     29 H7          3.2780    2.2309    0.1600 H         1 <0>         0.0429
     30 H8          2.3030    1.3083    1.3101 H         1 <0>         0.0429
     31 H9          5.2837    1.0631    0.8506 H         1 <0>         0.0391
     32 H10         5.3594   -0.6907    0.7759 H         1 <0>         0.0391
     33 H11         4.3674    0.0933    2.0245 H         1 <0>         0.0391
     34 H12        -0.6518    2.0228   -2.3294 H         1 <0>         0.0624
     35 H13        -0.4656   -2.0547   -2.3210 H         1 <0>         0.0624
     36 H14        -2.4750    1.0741    2.8091 H         1 <0>         0.0624
     37 H15        -2.3627   -1.2501    2.8178 H         1 <0>         0.0624
     38 H16        -3.4721    2.9525    1.6365 H         1 <0>         0.0624
     39 H17        -3.1744   -3.2240    1.6590 H         1 <0>         0.0624
     40 H18        -1.8873    4.1327   -2.1596 H         1 <0>         0.0618
     41 H19        -1.4845   -4.2729   -2.1304 H         1 <0>         0.0618
     42 H20        -3.3011    4.5982   -0.1773 H         1 <0>         0.0618
     43 H21        -2.8462   -4.8584   -0.1433 H         1 <0>         0.0618
@<TRIPOS>BOND
     1    1    5 1
     2    1    6 1
     3    1   10 1
     4    2    3 1
     5    2    4 1
     6    2    7 2
     7    3    5 1
     8    3   23 1
     9    3   24 1
    10    4    6 1
    11    4   25 1
    12    4   26 1
    13    5   27 1
    14    5   28 1
    15    6   29 1
    16    6   30 1
    17    7    8 1
    18    7    9 1
    19    8   11 ar
    20    8   13 ar
    21    9   12 ar
    22    9   14 ar
    23   10   31 1
    24   10   32 1
    25   10   33 1
    26   11   15 1
    27   11   17 ar
    28   12   16 1
    29   12   18 ar
    30   13   19 ar
    31   13   34 1
    32   14   20 ar
    33   14   35 1
    34   15   16 2
    35   15   36 1
    36   16   37 1
    37   17   21 ar
    38   17   38 1
    39   18   22 ar
    40   18   39 1
    41   19   21 ar
    42   19   40 1
    43   20   22 ar
    44   20   41 1
    45   21   42 1
    46   22   43 1
