@<TRIPOS>MOLECULE
DB00701
   70    72     0     0     0
SMALL
USER_CHARGES

@<TRIPOS>ATOM
      1 S1          3.4865    0.9024   -1.5837 S.o2      1 <0>         0.0609
      2 O1         -0.0957   -1.5079   -2.2775 O.3       1 <0>        -0.3886
      3 O2         -3.3589   -1.4990    0.7041 O.3       1 <0>        -0.4447
      4 O3         -5.6518   -1.3628    2.6862 O.3       1 <0>        -0.3760
      5 O4          2.6085    1.9415   -2.0893 O.2       1 <0>        -0.1528
      6 O5          4.6422    0.5021   -2.3649 O.2       1 <0>        -0.1528
      7 O6         -3.7255   -0.8386   -1.4649 O.2       1 <0>        -0.2265
      8 N1          2.5511   -0.4911   -1.1802 N.pl3     1 <0>        -0.1738
      9 N2         -1.7894   -0.2719   -0.3208 N.am      1 <0>        -0.2754
     10 N3          5.4920    2.7142    3.7407 N.pl3     1 <0>        -0.3580
     11 C1          0.1829   -0.1937   -1.7947 C.3       1 <0>         0.0882
     12 C2         -1.1405    0.4830   -1.3740 C.3       1 <0>         0.0573
     13 C3          1.1870   -0.2784   -0.6421 C.3       1 <0>         0.0483
     14 C4          3.2477   -1.6186   -0.5074 C.3       1 <0>         0.0229
     15 C5         -0.9661    1.9403   -0.9046 C.3       1 <0>        -0.0066
     16 C6          2.6427   -2.9735   -0.8947 C.3       1 <0>        -0.0323
     17 C7         -4.6183   -2.1622    0.7087 C.3       1 <0>         0.1299
     18 C8         -2.2424    2.7441   -0.9165 C.ar      1 <0>        -0.0455
     19 C9          3.2690   -4.1271   -0.1100 C.3       1 <0>        -0.0615
     20 C10         2.7255   -3.2381   -2.3987 C.3       1 <0>        -0.0615
     21 C11        -4.6153   -3.2691    1.7345 C.3       1 <0>         0.0101
     22 C12         4.0805    1.4388   -0.0039 C.ar      1 <0>         0.1056
     23 C13        -5.6704   -1.2195    1.2554 C.3       1 <0>         0.0848
     24 C14        -3.0236   -0.8654   -0.4593 C.2       1 <0>         0.4009
     25 C15        -4.8585   -2.5091    3.0230 C.3       1 <0>         0.0513
     26 C16        -2.6085    3.4548   -2.0595 C.ar      1 <0>        -0.0585
     27 C17        -3.0570    2.7763    0.2155 C.ar      1 <0>        -0.0585
     28 C18         5.2933    0.9546    0.4861 C.ar      1 <0>        -0.0336
     29 C19         3.3361    2.3464    0.7498 C.ar      1 <0>        -0.0336
     30 C20        -3.7890    4.1978   -2.0708 C.ar      1 <0>        -0.0615
     31 C21        -4.2376    3.5193    0.2041 C.ar      1 <0>        -0.0615
     32 C22         5.7620    1.3781    1.7296 C.ar      1 <0>        -0.0392
     33 C23         3.8049    2.7699    1.9935 C.ar      1 <0>        -0.0392
     34 C24         5.0178    2.2857    2.4834 C.ar      1 <0>         0.0247
     35 C25        -4.6035    4.2301   -0.9390 C.ar      1 <0>        -0.0617
     36 H1          0.6029    0.3633   -2.6388 H         1 <0>         0.0625
     37 H2         -1.7990    0.4660   -2.2524 H         1 <0>         0.0528
     38 H3          0.9043   -1.0730    0.0560 H         1 <0>         0.0470
     39 H4          1.1952    0.6376   -0.0479 H         1 <0>         0.0470
     40 H5          3.2048   -1.4776    0.5795 H         1 <0>         0.0446
     41 H6          4.3057   -1.6238   -0.7928 H         1 <0>         0.0446
     42 H7         -0.5379    1.9836    0.1054 H         1 <0>         0.0332
     43 H8         -0.2404    2.4481   -1.5538 H         1 <0>         0.0332
     44 H9          1.5783   -2.9812   -0.6343 H         1 <0>         0.0308
     45 H10        -1.3170   -0.3629    0.5738 H         1 <0>         0.1524
     46 H11        -4.8673   -2.5477   -0.2858 H         1 <0>         0.0758
     47 H12        -5.4520   -3.9527    1.5495 H         1 <0>         0.0324
     48 H13        -3.6866   -3.8453    1.7709 H         1 <0>         0.0324
     49 H14         3.1504   -3.9722    0.9676 H         1 <0>         0.0233
     50 H15         2.7927   -5.0793   -0.3664 H         1 <0>         0.0233
     51 H16         4.3396   -4.2141   -0.3244 H         1 <0>         0.0233
     52 H17         2.2469   -2.4482   -2.9836 H         1 <0>         0.0233
     53 H18         2.2328   -4.1828   -2.6528 H         1 <0>         0.0233
     54 H19         3.7690   -3.3066   -2.7250 H         1 <0>         0.0233
     55 H20        -0.5233   -2.0036   -1.5584 H         1 <0>         0.2099
     56 H21        -5.4954   -0.1690    1.0055 H         1 <0>         0.0597
     57 H22        -6.6714   -1.5066    0.9170 H         1 <0>         0.0597
     58 H23        -3.9190   -2.1499    3.4566 H         1 <0>         0.0561
     59 H24        -5.3797   -3.1108    3.7728 H         1 <0>         0.0561
     60 H25        -1.9838    3.4354   -2.9486 H         1 <0>         0.0620
     61 H26        -2.7836    2.2281    1.1131 H         1 <0>         0.0620
     62 H27         5.8888    0.2461   -0.0824 H         1 <0>         0.0638
     63 H28         2.3891    2.7373    0.3885 H         1 <0>         0.0638
     64 H29        -4.0744    4.7505   -2.9610 H         1 <0>         0.0618
     65 H30        -4.8720    3.5441    1.0853 H         1 <0>         0.0618
     66 H31         6.7085    0.9932    2.1009 H         1 <0>         0.0636
     67 H32         3.2157    3.4774    2.5713 H         1 <0>         0.0636
     68 H33        -5.5229    4.8082   -0.9479 H         1 <0>         0.0618
     69 H34         4.9524    3.3719    4.2879 H         1 <0>         0.1423
     70 H35         6.3710    2.3632    4.0967 H         1 <0>         0.1423
@<TRIPOS>BOND
     1    1    5 2
     2    1    6 2
     3    1    8 1
     4    1   22 1
     5    2   11 1
     6    2   55 1
     7    3   17 1
     8    3   24 1
     9    4   23 1
    10    4   25 1
    11    7   24 2
    12    8   13 1
    13    8   14 1
    14    9   12 1
    15    9   24 am
    16    9   45 1
    17   10   34 1
    18   10   69 1
    19   10   70 1
    20   11   12 1
    21   11   13 1
    22   11   36 1
    23   12   15 1
    24   12   37 1
    25   13   38 1
    26   13   39 1
    27   14   16 1
    28   14   40 1
    29   14   41 1
    30   15   18 1
    31   15   42 1
    32   15   43 1
    33   16   19 1
    34   16   20 1
    35   16   44 1
    36   17   21 1
    37   17   23 1
    38   17   46 1
    39   18   26 ar
    40   18   27 ar
    41   19   49 1
    42   19   50 1
    43   19   51 1
    44   20   52 1
    45   20   53 1
    46   20   54 1
    47   21   25 1
    48   21   47 1
    49   21   48 1
    50   22   28 ar
    51   22   29 ar
    52   23   56 1
    53   23   57 1
    54   25   58 1
    55   25   59 1
    56   26   30 ar
    57   26   60 1
    58   27   31 ar
    59   27   61 1
    60   28   32 ar
    61   28   62 1
    62   29   33 ar
    63   29   63 1
    64   30   35 ar
    65   30   64 1
    66   31   35 ar
    67   31   65 1
    68   32   34 ar
    69   32   66 1
    70   33   34 ar
    71   33   67 1
    72   35   68 1
