@<TRIPOS>MOLECULE
DB00178
   62    64     0     0     0
SMALL
USER_CHARGES

@<TRIPOS>ATOM
      1 O1          1.7480    2.8637    0.6573 O.2       1 <0>        -0.2739
      2 O2          2.2378   -2.4945   -0.9872 O.3       1 <0>        -0.4793
      3 O3          1.8775   -1.2625    0.8964 O.2       1 <0>        -0.2489
      4 O4         -4.2852    1.8917    0.0429 O.3       1 <0>        -0.4638
      5 O5         -2.8148    2.6257    1.6592 O.2       1 <0>        -0.2491
      6 N1          2.7570    1.0034   -0.2767 N.am      1 <0>        -0.2834
      7 N2         -0.6842    1.9372    0.1553 N.3       1 <0>        -0.2937
      8 C1          5.0359    0.2881   -0.4301 C.3       1 <0>        -0.0201
      9 C2          4.0994    1.3336    0.1930 C.3       1 <0>         0.0298
     10 C3          4.2087   -0.4189   -1.5007 C.3       1 <0>        -0.0194
     11 C4          5.4979   -0.5929    0.7282 C.3       1 <0>        -0.0484
     12 C5          4.2614    1.1982    1.7117 C.3       1 <0>        -0.0340
     13 C6          2.7546   -0.2054   -1.0925 C.3       1 <0>         0.1234
     14 C7          5.5253    0.3707    1.9029 C.3       1 <0>        -0.0511
     15 C8          1.6840    1.8524   -0.0451 C.2       1 <0>         0.2333
     16 C9          2.2418   -1.3463   -0.2670 C.2       1 <0>         0.3255
     17 C10         0.3857    1.4803   -0.7151 C.3       1 <0>         0.0827
     18 C11         0.2987    2.1386   -2.0774 C.3       1 <0>        -0.0411
     19 C12        -1.9907    1.6121   -0.4039 C.3       1 <0>         0.1067
     20 C13        -2.1570    0.0990   -0.6177 C.3       1 <0>        -0.0232
     21 C14        -3.0435    2.1082    0.5735 C.2       1 <0>         0.3243
     22 C15        -2.0637   -0.7571    0.6532 C.3       1 <0>        -0.0258
     23 C16        -2.2929   -2.2280    0.4133 C.ar      1 <0>        -0.0473
     24 C17        -3.5797   -2.7390    0.4947 C.ar      1 <0>        -0.0586
     25 C18        -1.2135   -3.0458    0.1149 C.ar      1 <0>        -0.0586
     26 C19        -5.3858    2.3185    0.8522 C.3       1 <0>         0.0897
     27 C20        -3.7918   -4.0997    0.2726 C.ar      1 <0>        -0.0615
     28 C21        -1.4257   -4.4064   -0.1073 C.ar      1 <0>        -0.0615
     29 C22        -6.6789    2.0101    0.1282 C.3       1 <0>        -0.0306
     30 C23        -2.7150   -4.9333   -0.0284 C.ar      1 <0>        -0.0617
     31 H1          5.9127    0.7747   -0.8750 H         1 <0>         0.0319
     32 H2          4.3462    2.3479   -0.1414 H         1 <0>         0.0503
     33 H3          4.3782    0.0914   -2.4578 H         1 <0>         0.0292
     34 H4          4.4984   -1.4656   -1.6348 H         1 <0>         0.0292
     35 H5          4.7947   -1.4092    0.9259 H         1 <0>         0.0269
     36 H6          6.4793   -1.0376    0.5379 H         1 <0>         0.0269
     37 H7          4.3478    2.1754    2.1978 H         1 <0>         0.0283
     38 H8          3.4056    0.6833    2.1638 H         1 <0>         0.0283
     39 H9          2.1102   -0.0908   -1.9684 H         1 <0>         0.0617
     40 H10         6.4109    1.0146    1.8451 H         1 <0>         0.0266
     41 H11         5.5407   -0.1463    2.8665 H         1 <0>         0.0266
     42 H12         0.3496    0.3974   -0.8084 H         1 <0>         0.0554
     43 H13        -0.6185    2.9480    0.2805 H         1 <0>         0.1234
     44 H14         1.2298    2.0065   -2.6406 H         1 <0>         0.0249
     45 H15        -0.5025    1.7182   -2.6933 H         1 <0>         0.0249
     46 H16         0.1412    3.2212   -1.9986 H         1 <0>         0.0249
     47 H17         1.9327   -3.2619   -0.4580 H         1 <0>         0.2951
     48 H18        -2.1690    2.1592   -1.3368 H         1 <0>         0.0576
     49 H19        -1.4738   -0.2828   -1.3849 H         1 <0>         0.0289
     50 H20        -3.1505   -0.0730   -1.0570 H         1 <0>         0.0289
     51 H21        -1.0811   -0.6263    1.1239 H         1 <0>         0.0314
     52 H22        -2.7889   -0.4112    1.4007 H         1 <0>         0.0314
     53 H23        -4.4251   -2.0971    0.7258 H         1 <0>         0.0620
     54 H24        -0.2124   -2.6439    0.0507 H         1 <0>         0.0620
     55 H25        -5.3101    3.3967    1.0324 H         1 <0>         0.0694
     56 H26        -5.3618    1.7865    1.8098 H         1 <0>         0.0694
     57 H27        -4.7957   -4.5098    0.3331 H         1 <0>         0.0618
     58 H28        -0.5871   -5.0553   -0.3423 H         1 <0>         0.0618
     59 H29        -7.5433    2.3233    0.7204 H         1 <0>         0.0262
     60 H30        -6.7097    2.5203   -0.8401 H         1 <0>         0.0262
     61 H31        -6.7597    0.9371   -0.0755 H         1 <0>         0.0262
     62 H32        -2.8801   -5.9925   -0.2018 H         1 <0>         0.0618
@<TRIPOS>BOND
     1    1   15 2
     2    2   16 1
     3    2   47 1
     4    3   16 2
     5    4   21 1
     6    4   26 1
     7    5   21 2
     8    6    9 1
     9    6   13 1
    10    6   15 am
    11    7   17 1
    12    7   19 1
    13    7   43 1
    14    8    9 1
    15    8   10 1
    16    8   11 1
    17    8   31 1
    18    9   12 1
    19    9   32 1
    20   10   13 1
    21   10   33 1
    22   10   34 1
    23   11   14 1
    24   11   35 1
    25   11   36 1
    26   12   14 1
    27   12   37 1
    28   12   38 1
    29   13   16 1
    30   13   39 1
    31   14   40 1
    32   14   41 1
    33   15   17 1
    34   17   18 1
    35   17   42 1
    36   18   44 1
    37   18   45 1
    38   18   46 1
    39   19   20 1
    40   19   21 1
    41   19   48 1
    42   20   22 1
    43   20   49 1
    44   20   50 1
    45   22   23 1
    46   22   51 1
    47   22   52 1
    48   23   24 ar
    49   23   25 ar
    50   24   27 ar
    51   24   53 1
    52   25   28 ar
    53   25   54 1
    54   26   29 1
    55   26   55 1
    56   26   56 1
    57   27   30 ar
    58   27   57 1
    59   28   30 ar
    60   28   58 1
    61   29   59 1
    62   29   60 1
    63   29   61 1
    64   30   62 1
