@<TRIPOS>MOLECULE
DB00629
   22    22     0     0     0
SMALL
USER_CHARGES

@<TRIPOS>ATOM
      1 Cl1        -0.3795   -2.0981   -0.7312 Cl        1 <0>        -0.0828
      2 Cl2        -2.0961    2.9659    0.3760 Cl        1 <0>        -0.0828
      3 N1          1.0556    0.1572   -0.0329 N.2       1 <0>        -0.0784
      4 N2          2.2350    0.8633   -0.2491 N.2       1 <0>         0.0441
      5 N3          4.6072    0.5558   -0.0905 N.pl3     1 <0>        -0.2874
      6 N4          3.1858   -1.1466    0.4614 N.pl3     1 <0>        -0.2874
      7 C1         -1.3507    0.3930   -0.1659 C.ar      1 <0>         0.0327
      8 C2         -1.6237   -0.9633   -0.3434 C.ar      1 <0>         0.0510
      9 C3         -2.3832    1.2773    0.1465 C.ar      1 <0>         0.0510
     10 C4         -2.9293   -1.4353   -0.2084 C.ar      1 <0>        -0.0427
     11 C5         -3.6888    0.8052    0.2815 C.ar      1 <0>        -0.0427
     12 C6         -3.9619   -0.5512    0.1042 C.ar      1 <0>        -0.0590
     13 C7          0.0177    0.8878   -0.3073 C.2       1 <0>         0.0762
     14 C8          3.2966    0.1496    0.0198 C.2       1 <0>         0.4041
     15 H1         -3.1595   -2.4893   -0.3433 H         1 <0>         0.0632
     16 H2         -4.5051    1.4807    0.5246 H         1 <0>         0.0632
     17 H3         -4.9785   -0.9188    0.2093 H         1 <0>         0.0618
     18 H4          0.1580    1.9296   -0.6464 H         1 <0>         0.0868
     19 H5          5.3752   -0.0649    0.1402 H         1 <0>         0.2547
     20 H6          4.8409    1.4909   -0.4059 H         1 <0>         0.2547
     21 H7          2.2791   -1.5827    0.5895 H         1 <0>         0.2547
     22 H8          4.0051   -1.7061    0.6713 H         1 <0>         0.2547
@<TRIPOS>BOND
     1    1    8 1
     2    2    9 1
     3    3    4 1
     4    3   13 2
     5    4   14 2
     6    5   14 1
     7    5   19 1
     8    5   20 1
     9    6   14 1
    10    6   21 1
    11    6   22 1
    12    7    8 ar
    13    7    9 ar
    14    7   13 1
    15    8   10 ar
    16    9   11 ar
    17   10   12 ar
    18   10   15 1
    19   11   12 ar
    20   11   16 1
    21   12   17 1
    22   13   18 1
