@<TRIPOS>MOLECULE
DB00313
   26    25     0     0     0
SMALL
USER_CHARGES

@<TRIPOS>ATOM
      1 O1          0.0309   -2.5809    0.4565 O.3       1 <0>        -0.4804
      2 O2         -0.0382   -1.7492   -1.6525 O.2       1 <0>        -0.2507
      3 C1          0.0010   -0.1982    0.2311 C.3       1 <0>         0.0563
      4 C2         -1.2730    0.6066   -0.0889 C.3       1 <0>        -0.0404
      5 C3          1.2895    0.5604   -0.1436 C.3       1 <0>        -0.0404
      6 C4         -2.5845   -0.0832    0.3098 C.3       1 <0>        -0.0552
      7 C5          2.5903   -0.1107    0.3092 C.3       1 <0>        -0.0552
      8 C6         -0.0103   -1.5635   -0.4429 C.2       1 <0>         0.3078
      9 C7         -3.8299    0.7022   -0.0718 C.3       1 <0>        -0.0653
     10 C8          3.8031    0.7303   -0.0613 C.3       1 <0>        -0.0653
     11 H1          0.0168   -0.3622    1.3173 H         1 <0>         0.0413
     12 H2         -1.2186    1.5795    0.4157 H         1 <0>         0.0273
     13 H3         -1.3023    0.8145   -1.1665 H         1 <0>         0.0273
     14 H4          1.3232    0.7008   -1.2320 H         1 <0>         0.0273
     15 H5          1.2437    1.5646    0.2977 H         1 <0>         0.0273
     16 H6         -2.6466   -1.0691   -0.1645 H         1 <0>         0.0263
     17 H7         -2.5871   -0.2515    1.3932 H         1 <0>         0.0263
     18 H8          2.6891   -1.0988   -0.1535 H         1 <0>         0.0263
     19 H9          2.5711   -0.2593    1.3949 H         1 <0>         0.0263
     20 H10        -3.8802    0.8514   -1.1550 H         1 <0>         0.0230
     21 H11        -4.7302    0.1644    0.2412 H         1 <0>         0.0230
     22 H12        -3.8338    1.6846    0.4110 H         1 <0>         0.0230
     23 H13         3.7576    1.7157    0.4135 H         1 <0>         0.0230
     24 H14         4.7218    0.2362    0.2699 H         1 <0>         0.0230
     25 H15         3.8655    0.8728   -1.1448 H         1 <0>         0.0230
     26 H16         0.0309   -3.4575    0.0163 H         1 <0>         0.2951
@<TRIPOS>BOND
     1    1    8 1
     2    1   26 1
     3    2    8 2
     4    3    4 1
     5    3    5 1
     6    3    8 1
     7    3   11 1
     8    4    6 1
     9    4   12 1
    10    4   13 1
    11    5    7 1
    12    5   14 1
    13    5   15 1
    14    6    9 1
    15    6   16 1
    16    6   17 1
    17    7   10 1
    18    7   18 1
    19    7   19 1
    20    9   20 1
    21    9   21 1
    22    9   22 1
    23   10   23 1
    24   10   24 1
    25   10   25 1
