@<TRIPOS>MOLECULE
DB00552
   35    37     0     0     0
SMALL
USER_CHARGES

@<TRIPOS>ATOM
      1 O1          2.0141    0.2245    1.0446 O.3       1 <0>        -0.3484
      2 O2          3.1404   -2.5098    0.1578 O.3       1 <0>        -0.3890
      3 O3          4.0619    2.1132    0.8110 O.3       1 <0>        -0.3924
      4 O4         -4.2980    1.3246    1.1977 O.3       1 <0>        -0.3837
      5 N1         -0.1945    0.3006    0.1821 N.pl3     1 <0>        -0.2915
      6 N2         -1.4079    2.1344   -0.1673 N.2       1 <0>        -0.2360
      7 N3         -1.8796   -1.3677    0.4035 N.pl3     1 <0>        -0.2905
      8 N4         -4.3051   -1.3139    0.0082 N.2       1 <0>        -0.2734
      9 C1          0.9911   -0.5276    0.3691 C.3       1 <0>         0.1405
     10 C2          1.6067   -1.0410   -0.9245 C.3       1 <0>         0.0213
     11 C3          3.0455   -1.2551   -0.5133 C.3       1 <0>         0.0876
     12 C4          3.2954   -0.1247    0.4796 C.3       1 <0>         0.1100
     13 C5          3.8744    1.1189   -0.1807 C.3       1 <0>         0.0729
     14 C6         -1.4996   -0.0953    0.1904 C.cat     1 <0>         0.1313
     15 C7         -2.2348    1.0462   -0.0218 C.2       1 <0>         0.1113
     16 C8         -0.1898    1.6517   -0.0402 C.cat     1 <0>         0.0997
     17 C9         -3.7127    1.1497   -0.0906 C.3       1 <0>         0.1196
     18 C10        -4.3504   -0.0674   -0.7690 C.3       1 <0>         0.0727
     19 C11        -3.1904   -1.8016    0.4198 C.2       1 <0>         0.0811
     20 H1          0.7232   -1.3495    1.0410 H         1 <0>         0.0839
     21 H2          1.5514   -0.2806   -1.7125 H         1 <0>         0.0335
     22 H3          1.1042   -1.9463   -1.2788 H         1 <0>         0.0335
     23 H4          3.7430   -1.2743   -1.3547 H         1 <0>         0.0621
     24 H5          3.9353   -0.4380    1.3123 H         1 <0>         0.0646
     25 H6          3.1925    1.5251   -0.9345 H         1 <0>         0.0584
     26 H7          4.8404    0.9008   -0.6467 H         1 <0>         0.0584
     27 H8          0.7201    2.2328   -0.1044 H         1 <0>         0.1030
     28 H9         -3.9712    2.0360   -0.6831 H         1 <0>         0.0678
     29 H10         2.6430   -2.4612    0.9910 H         1 <0>         0.2099
     30 H11        -1.1797   -2.0660    0.6412 H         1 <0>         0.1544
     31 H12        -5.4133    0.1521   -0.9278 H         1 <0>         0.0538
     32 H13        -3.9158   -0.2396   -1.7619 H         1 <0>         0.0538
     33 H14         4.4325    2.8948    0.3669 H         1 <0>         0.2095
     34 H15        -3.2434   -2.7855    0.9159 H         1 <0>         0.0996
     35 H16        -3.9288    2.1394    1.5795 H         1 <0>         0.2104
@<TRIPOS>BOND
     1    1    9 1
     2    1   12 1
     3    2   11 1
     4    2   29 1
     5    3   13 1
     6    3   33 1
     7    4   17 1
     8    4   35 1
     9    5    9 1
    10    5   14 1
    11    5   16 2
    12    6   15 2
    13    6   16 1
    14    7   14 1
    15    7   19 1
    16    7   30 1
    17    8   18 1
    18    8   19 2
    19    9   10 1
    20    9   20 1
    21   10   11 1
    22   10   21 1
    23   10   22 1
    24   11   12 1
    25   11   23 1
    26   12   13 1
    27   12   24 1
    28   13   25 1
    29   13   26 1
    30   14   15 1
    31   15   17 1
    32   16   27 1
    33   17   18 1
    34   17   28 1
    35   18   31 1
    36   18   32 1
    37   19   34 1
