@<TRIPOS>MOLECULE
DB00206
   84    89     0     0     0
SMALL
USER_CHARGES

@<TRIPOS>ATOM
      1 O1         -1.4989    2.8438   -1.1321 O.3       1 <0>        -0.3753
      2 O2         -2.7633    0.3395   -0.6444 O.3       1 <0>        -0.4552
      3 O3          2.6399    3.0712   -0.8919 O.3       1 <0>        -0.4677
      4 O4          0.8153    3.7291    0.3630 O.2       1 <0>        -0.2504
      5 O5         -3.5711   -0.5956   -2.5866 O.2       1 <0>        -0.2449
      6 O6          9.6089    0.3534    0.1593 O.3       1 <0>        -0.4950
      7 O7         -8.5954   -0.1729   -1.4524 O.3       1 <0>        -0.4913
      8 O8         -6.2589   -0.6416    2.7018 O.3       1 <0>        -0.4913
      9 O9         -8.6419   -0.4739    1.3004 O.3       1 <0>        -0.4885
     10 N1          1.7960   -2.2311    0.2793 N.3       1 <0>        -0.2934
     11 N2          4.7853   -0.0247    0.8739 N.pl3     1 <0>        -0.3564
     12 C1          1.4849    0.5103   -0.7937 C.3       1 <0>        -0.0197
     13 C2          0.7785   -0.7020   -1.4312 C.3       1 <0>        -0.0211
     14 C3          1.7307    0.2433    0.7047 C.3       1 <0>        -0.0278
     15 C4          0.6821    1.7982   -1.0750 C.3       1 <0>         0.0891
     16 C5          2.4511   -1.0886    0.9745 C.3       1 <0>         0.0512
     17 C6          1.5713   -1.9880   -1.1541 C.3       1 <0>         0.0028
     18 C7         -0.6817   -0.8201   -0.9682 C.3       1 <0>        -0.0089
     19 C8         -0.7862    1.7030   -0.6413 C.3       1 <0>         0.1083
     20 C9         -1.4667    0.4635   -1.2294 C.3       1 <0>         0.1304
     21 C10         3.9270   -1.0724    0.6946 C.cat     1 <0>         0.0376
     22 C11         2.5493   -3.4909    0.4984 C.3       1 <0>         0.0036
     23 C12         4.6607   -2.1627    0.2717 C.2       1 <0>        -0.0164
     24 C13         4.0122   -3.4747   -0.0108 C.3       1 <0>        -0.0125
     25 C14         1.3575    2.9797   -0.4379 C.2       1 <0>         0.3128
     26 C15         6.0168   -1.7538    0.1583 C.ar      1 <0>         0.0034
     27 C16         6.0672   -0.4093    0.5410 C.ar      1 <0>         0.0505
     28 C17        -2.6990    3.0476   -0.4062 C.3       1 <0>         0.0370
     29 C18         7.2109   -2.3922   -0.2323 C.ar      1 <0>        -0.0489
     30 C19        -3.7209   -0.2080   -1.4382 C.2       1 <0>         0.3398
     31 C20         7.2579    0.3262    0.5532 C.ar      1 <0>         0.0040
     32 C21         8.4078   -1.6672   -0.2259 C.ar      1 <0>        -0.0193
     33 C22         8.4286   -0.3289    0.1611 C.ar      1 <0>         0.1221
     34 C23         3.4032    4.1599   -0.3629 C.3       1 <0>         0.0817
     35 C24        -5.0166   -0.2796   -0.7171 C.ar      1 <0>         0.0661
     36 C25        -5.0361   -0.4303    0.6695 C.ar      1 <0>        -0.0021
     37 C26        -6.2149   -0.1937   -1.4259 C.ar      1 <0>        -0.0021
     38 C27        -7.4324   -0.2584   -0.7483 C.ar      1 <0>         0.1660
     39 C28        -6.2535   -0.4948    1.3473 C.ar      1 <0>         0.1660
     40 C29         9.5672    1.7195    0.5653 C.3       1 <0>         0.0788
     41 C30        -7.4517   -0.4088    0.6383 C.ar      1 <0>         0.2035
     42 C31        -9.1585   -1.3952   -1.9246 C.3       1 <0>         0.0790
     43 C32        -4.9910   -0.7215    3.3498 C.3       1 <0>         0.0790
     44 C33        -9.1994    0.7582    1.7517 C.3       1 <0>         0.0791
     45 H1          2.4682    0.6064   -1.2752 H         1 <0>         0.0313
     46 H2          0.7663   -0.5542   -2.5204 H         1 <0>         0.0317
     47 H3          2.2929    1.0714    1.1507 H         1 <0>         0.0287
     48 H4          0.7722    0.2223    1.2381 H         1 <0>         0.0287
     49 H5          0.6942    1.9993   -2.1565 H         1 <0>         0.0443
     50 H6          2.3521   -1.2747    2.0538 H         1 <0>         0.0527
     51 H7          2.5193   -1.9253   -1.7026 H         1 <0>         0.0429
     52 H8          1.0214   -2.8360   -1.5818 H         1 <0>         0.0429
     53 H9         -0.7470   -1.0771    0.0963 H         1 <0>         0.0305
     54 H10        -1.1665   -1.6550   -1.4903 H         1 <0>         0.0305
     55 H11        -0.8388    1.6843    0.4556 H         1 <0>         0.0641
     56 H12        -1.5589    0.6205   -2.3135 H         1 <0>         0.0760
     57 H13         2.5535   -3.6957    1.5779 H         1 <0>         0.0430
     58 H14         2.0134   -4.3342    0.0458 H         1 <0>         0.0430
     59 H15         4.5724   -4.2860    0.4675 H         1 <0>         0.0326
     60 H16         4.0307   -3.6555   -1.0922 H         1 <0>         0.0326
     61 H17         4.5293    0.8974    1.1986 H         1 <0>         0.1656
     62 H18        -3.5450    2.6033   -0.9354 H         1 <0>         0.0524
     63 H19        -2.6571    2.7050    0.6327 H         1 <0>         0.0524
     64 H20        -2.8854    4.1263   -0.3842 H         1 <0>         0.0524
     65 H21         7.2102   -3.4351   -0.5362 H         1 <0>         0.0625
     66 H22         7.2104    1.3624    0.8642 H         1 <0>         0.0675
     67 H23         9.3282   -2.1612   -0.5275 H         1 <0>         0.0654
     68 H24         2.9378    5.1138   -0.6287 H         1 <0>         0.0661
     69 H25         3.4963    4.0633    0.7230 H         1 <0>         0.0661
     70 H26         4.4022    4.1207   -0.8051 H         1 <0>         0.0661
     71 H27        -4.0824   -0.5098    1.1790 H         1 <0>         0.0663
     72 H28        -6.2092   -0.0720   -2.5064 H         1 <0>         0.0663
     73 H29         8.9571    2.3241   -0.1145 H         1 <0>         0.0660
     74 H30         9.2519    1.8209    1.6093 H         1 <0>         0.0660
     75 H31        10.5899    2.1060    0.5031 H         1 <0>         0.0660
     76 H32        -8.4707   -1.8922   -2.6162 H         1 <0>         0.0660
     77 H33        -9.3952   -2.0596   -1.0876 H         1 <0>         0.0660
     78 H34       -10.0839   -1.1623   -2.4586 H         1 <0>         0.0660
     79 H35        -4.4323   -1.6102    3.0367 H         1 <0>         0.0660
     80 H36        -4.4142    0.2014    3.2260 H         1 <0>         0.0660
     81 H37        -5.1847   -0.8316    4.4220 H         1 <0>         0.0660
     82 H38       -10.1428    0.5414    2.2602 H         1 <0>         0.0660
     83 H39        -9.4030    1.4219    0.9055 H         1 <0>         0.0660
     84 H40        -8.5253    1.2497    2.4603 H         1 <0>         0.0660
@<TRIPOS>BOND
     1    1   19 1
     2    1   28 1
     3    2   20 1
     4    2   30 1
     5    3   25 1
     6    3   34 1
     7    4   25 2
     8    5   30 2
     9    6   33 1
    10    6   40 1
    11    7   38 1
    12    7   42 1
    13    8   39 1
    14    8   43 1
    15    9   41 1
    16    9   44 1
    17   10   16 1
    18   10   17 1
    19   10   22 1
    20   11   21 1
    21   11   27 2
    22   11   61 1
    23   12   13 1
    24   12   14 1
    25   12   15 1
    26   12   45 1
    27   13   17 1
    28   13   18 1
    29   13   46 1
    30   14   16 1
    31   14   47 1
    32   14   48 1
    33   15   19 1
    34   15   25 1
    35   15   49 1
    36   16   21 1
    37   16   50 1
    38   17   51 1
    39   17   52 1
    40   18   20 1
    41   18   53 1
    42   18   54 1
    43   19   20 1
    44   19   55 1
    45   20   56 1
    46   21   23 1
    47   22   24 1
    48   22   57 1
    49   22   58 1
    50   23   24 1
    51   23   26 2
    52   24   59 1
    53   24   60 1
    54   26   27 ar
    55   26   29 ar
    56   27   31 ar
    57   28   62 1
    58   28   63 1
    59   28   64 1
    60   29   32 ar
    61   29   65 1
    62   30   35 1
    63   31   33 ar
    64   31   66 1
    65   32   33 ar
    66   32   67 1
    67   34   68 1
    68   34   69 1
    69   34   70 1
    70   35   36 ar
    71   35   37 ar
    72   36   39 ar
    73   36   71 1
    74   37   38 ar
    75   37   72 1
    76   38   41 ar
    77   39   41 ar
    78   40   73 1
    79   40   74 1
    80   40   75 1
    81   42   76 1
    82   42   77 1
    83   42   78 1
    84   43   79 1
    85   43   80 1
    86   43   81 1
    87   44   82 1
    88   44   83 1
    89   44   84 1
