@<TRIPOS>MOLECULE
DB00928
   29    30     0     0     0
SMALL
USER_CHARGES

@<TRIPOS>ATOM
      1 O1          1.0669    0.2216    1.1978 O.3       1 <0>        -0.3456
      2 O2          0.9170   -2.4812   -1.1540 O.3       1 <0>        -0.3847
      3 O3          3.0943   -1.8176    0.3486 O.3       1 <0>        -0.3864
      4 O4          2.0393    2.7990    0.6690 O.3       1 <0>        -0.3924
      5 O5         -1.8396   -2.5806    0.6559 O.2       1 <0>        -0.2443
      6 N1         -1.0189   -0.4499    0.3837 N.am      1 <0>        -0.2535
      7 N2         -3.3457   -0.9226    0.2529 N.2       1 <0>        -0.1594
      8 N3         -2.5625    1.2821   -0.0345 N.2       1 <0>        -0.2047
      9 N4         -4.8625    0.7852   -0.1588 N.pl3     1 <0>        -0.3273
     10 C1          1.0523   -1.1359   -0.7444 C.3       1 <0>         0.1286
     11 C2          2.4858   -0.7765   -0.4152 C.3       1 <0>         0.1135
     12 C3          2.3110    0.4319    0.4945 C.3       1 <0>         0.1126
     13 C4          0.3462   -0.8514    0.5701 C.3       1 <0>         0.1693
     14 C5          2.2097    1.7477   -0.2654 C.3       1 <0>         0.0730
     15 C6         -2.0604   -1.3879    0.4428 C.2       1 <0>         0.3545
     16 C7         -1.3569    0.8635    0.1409 C.2       1 <0>         0.1057
     17 C8         -3.5744    0.3450    0.0271 C.2       1 <0>         0.2184
     18 H1          0.6826   -0.4886   -1.5489 H         1 <0>         0.0665
     19 H2          3.1107   -0.5995   -1.2944 H         1 <0>         0.0647
     20 H3          0.3797   -1.7204    1.2378 H         1 <0>         0.0867
     21 H4          3.0967    0.4990    1.2555 H         1 <0>         0.0647
     22 H5          1.3681    1.7664   -0.9623 H         1 <0>         0.0584
     23 H6          3.1306    1.9332   -0.8277 H         1 <0>         0.0584
     24 H7         -0.0326   -2.6591   -1.2627 H         1 <0>         0.2101
     25 H8          2.6148   -1.9170    1.1879 H         1 <0>         0.2100
     26 H9         -0.5302    1.5786    0.1005 H         1 <0>         0.1032
     27 H10         1.9889    3.6275    0.1626 H         1 <0>         0.2095
     28 H11        -5.0636    1.7635   -0.3349 H         1 <0>         0.1452
     29 H12        -5.6474    0.1440   -0.1245 H         1 <0>         0.1452
@<TRIPOS>BOND
     1    1   12 1
     2    1   13 1
     3    2   10 1
     4    2   24 1
     5    3   11 1
     6    3   25 1
     7    4   14 1
     8    4   27 1
     9    5   15 2
    10    6   13 1
    11    6   15 am
    12    6   16 1
    13    7   15 1
    14    7   17 2
    15    8   16 2
    16    8   17 1
    17    9   17 1
    18    9   28 1
    19    9   29 1
    20   10   11 1
    21   10   13 1
    22   10   18 1
    23   11   12 1
    24   11   19 1
    25   12   14 1
    26   12   21 1
    27   13   20 1
    28   14   22 1
    29   14   23 1
    30   16   26 1
