@<TRIPOS>MOLECULE
DB00395
   42    41     0     0     0
SMALL
USER_CHARGES

@<TRIPOS>ATOM
      1 O1         -0.4936   -0.1098   -0.2006 O.3       1 <0>        -0.4497
      2 O2          1.8277    2.4945    0.1564 O.3       1 <0>        -0.4499
      3 O3         -1.8533    0.0352   -2.0458 O.2       1 <0>        -0.2265
      4 O4          1.9242    3.5691    2.1901 O.2       1 <0>        -0.2267
      5 N1         -2.7227   -0.2997    0.0789 N.am      1 <0>        -0.2788
      6 N2          1.6854    4.7461    0.2293 N.am      1 <0>        -0.2950
      7 C1          1.9584    0.0596   -0.2023 C.3       1 <0>         0.0363
      8 C2          2.1284   -1.2723    0.5873 C.3       1 <0>        -0.0416
      9 C3          0.6481    0.0758   -1.0257 C.3       1 <0>         0.1025
     10 C4          1.9638    1.2388    0.8074 C.3       1 <0>         0.1025
     11 C5          3.1404    0.2748   -1.1683 C.3       1 <0>        -0.0533
     12 C6          2.2498   -2.5385   -0.2688 C.3       1 <0>        -0.0552
     13 C7          2.4661   -3.7707    0.5992 C.3       1 <0>        -0.0653
     14 C8         -1.7086   -0.1114   -0.8367 C.2       1 <0>         0.4005
     15 C9         -4.1225   -0.3507   -0.2743 C.3       1 <0>         0.0206
     16 C10         1.8218    3.5971    0.9682 C.2       1 <0>         0.3977
     17 C11        -4.7230    1.0490   -0.2616 C.3       1 <0>        -0.0468
     18 C12        -4.8772   -1.2837    0.6647 C.3       1 <0>        -0.0468
     19 H1          1.2873   -1.3926    1.2826 H         1 <0>         0.0273
     20 H2          3.0277   -1.1950    1.2134 H         1 <0>         0.0273
     21 H3          0.5495    1.0323   -1.5551 H         1 <0>         0.0704
     22 H4          0.6710   -0.7141   -1.7863 H         1 <0>         0.0704
     23 H5          1.1410    1.1173    1.5236 H         1 <0>         0.0704
     24 H6          2.9053    1.2345    1.3723 H         1 <0>         0.0704
     25 H7          3.0858    1.2492   -1.6666 H         1 <0>         0.0237
     26 H8          3.1574   -0.4787   -1.9625 H         1 <0>         0.0237
     27 H9          4.0978    0.2261   -0.6377 H         1 <0>         0.0237
     28 H10         1.3434   -2.6846   -0.8651 H         1 <0>         0.0263
     29 H11         3.0929   -2.4589   -0.9618 H         1 <0>         0.0263
     30 H12         1.6298   -3.9146    1.2907 H         1 <0>         0.0230
     31 H13         3.3864   -3.6815    1.1853 H         1 <0>         0.0230
     32 H14         2.5474   -4.6651   -0.0264 H         1 <0>         0.0230
     33 H15        -4.2001   -0.7480   -1.2936 H         1 <0>         0.0494
     34 H16        -2.4676   -0.3615    1.0602 H         1 <0>         0.1523
     35 H17        -4.6499    1.5033    0.7329 H         1 <0>         0.0247
     36 H18        -4.1982    1.7073   -0.9625 H         1 <0>         0.0247
     37 H19        -5.7793    1.0246   -0.5489 H         1 <0>         0.0247
     38 H20        -4.8245   -0.9334    1.7015 H         1 <0>         0.0247
     39 H21        -4.4497   -2.2919    0.6356 H         1 <0>         0.0247
     40 H22        -5.9325   -1.3547    0.3816 H         1 <0>         0.0247
     41 H23         1.6042    4.7175   -0.7815 H         1 <0>         0.1482
     42 H24         1.6618    5.6590    0.6712 H         1 <0>         0.1482
@<TRIPOS>BOND
     1    1    9 1
     2    1   14 1
     3    2   10 1
     4    2   16 1
     5    3   14 2
     6    4   16 2
     7    5   14 am
     8    5   15 1
     9    5   34 1
    10    6   16 am
    11    6   41 1
    12    6   42 1
    13    7    8 1
    14    7    9 1
    15    7   10 1
    16    7   11 1
    17    8   12 1
    18    8   19 1
    19    8   20 1
    20    9   21 1
    21    9   22 1
    22   10   23 1
    23   10   24 1
    24   11   25 1
    25   11   26 1
    26   11   27 1
    27   12   13 1
    28   12   28 1
    29   12   29 1
    30   13   30 1
    31   13   31 1
    32   13   32 1
    33   15   17 1
    34   15   18 1
    35   15   33 1
    36   17   35 1
    37   17   36 1
    38   17   37 1
    39   18   38 1
    40   18   39 1
    41   18   40 1
