@<TRIPOS>MOLECULE
DB00398
   48    50     0     0     0
SMALL
USER_CHARGES

@<TRIPOS>ATOM
      1 Cl1        -8.4022   -2.5687    1.6240 Cl        1 <0>        -0.0830
      2 F1         -8.4428    0.1637   -1.8808 F         1 <0>        -0.1658
      3 F2         -8.9485   -1.8717   -1.3285 F         1 <0>        -0.1658
      4 F3         -9.5087   -0.2234   -0.0254 F         1 <0>        -0.1658
      5 O1          3.6556    2.7843    0.1655 O.3       1 <0>        -0.4559
      6 O2         -2.0945   -0.0125    1.1737 O.2       1 <0>        -0.2522
      7 O3          4.5475   -1.8171   -1.7219 O.2       1 <0>        -0.2685
      8 N1         -3.7938    0.5752   -0.3285 N.am      1 <0>        -0.2692
      9 N2         -1.6885    1.4954   -0.5670 N.am      1 <0>        -0.2692
     10 N3          6.3091   -0.3210    0.9315 N.ar      1 <0>        -0.2501
     11 N4          6.3047   -2.6194   -0.4393 N.am      1 <0>        -0.3132
     12 C1         -4.8873   -0.1623    0.1258 C.ar      1 <0>         0.0354
     13 C2         -7.2053   -0.8113   -0.0803 C.ar      1 <0>         0.0748
     14 C3         -6.1127   -0.0729   -0.5348 C.ar      1 <0>        -0.0274
     15 C4         -0.3249    1.8238   -0.3804 C.ar      1 <0>         0.0350
     16 C5         -4.7548   -0.9900    1.2406 C.ar      1 <0>        -0.0390
     17 C6          2.3445    2.4670   -0.0150 C.ar      1 <0>         0.1286
     18 C7         -7.0729   -1.6389    1.0344 C.ar      1 <0>         0.0527
     19 C8          0.2820    2.7164   -1.2482 C.ar      1 <0>        -0.0370
     20 C9          0.3744    1.2458    0.6663 C.ar      1 <0>        -0.0370
     21 C10        -5.8475   -1.7284    1.6949 C.ar      1 <0>        -0.0411
     22 C11         1.6262    3.0404   -1.0643 C.ar      1 <0>        -0.0176
     23 C12         1.7186    1.5698    0.8504 C.ar      1 <0>        -0.0176
     24 C13        -2.4789    0.6211    0.1961 C.2       1 <0>         0.3081
     25 C14        -8.5004   -0.6888   -0.8168 C.3       1 <0>         0.4188
     26 C15         4.5392    1.7490    0.4210 C.ar      1 <0>         0.1321
     27 C16         4.4662    0.5985   -0.3347 C.ar      1 <0>         0.0112
     28 C17         5.3731   -0.4069   -0.0401 C.ar      1 <0>         0.1288
     29 C18         5.4726    1.8930    1.4250 C.ar      1 <0>        -0.0012
     30 C19         6.3345    0.8297    1.6408 C.ar      1 <0>         0.0319
     31 C20         5.3587   -1.6493   -0.7931 C.2       1 <0>         0.2623
     32 C21         6.4317   -3.8944   -1.1079 C.3       1 <0>         0.0004
     33 H1         -6.2057    0.5749   -1.4032 H         1 <0>         0.0642
     34 H2         -3.8423   -1.1140    1.8059 H         1 <0>         0.0636
     35 H3         -3.9671    1.1554   -1.1456 H         1 <0>         0.1564
     36 H4         -0.2683    3.1686   -2.0687 H         1 <0>         0.0637
     37 H5         -0.0364    0.5490    1.3812 H         1 <0>         0.0637
     38 H6         -2.1441    1.9532   -1.3524 H         1 <0>         0.1564
     39 H7         -5.7291   -2.3695    2.5650 H         1 <0>         0.0633
     40 H8          2.1086    3.7399   -1.7415 H         1 <0>         0.0655
     41 H9          2.2479    1.1269    1.6901 H         1 <0>         0.0655
     42 H10         3.7495    0.4883   -1.1412 H         1 <0>         0.0677
     43 H11         5.5363    2.7940    2.0236 H         1 <0>         0.0669
     44 H12         7.0927    0.8776    2.4154 H         1 <0>         0.0831
     45 H13         6.9620   -2.4116    0.3070 H         1 <0>         0.1487
     46 H14         5.4768   -4.1984   -1.5434 H         1 <0>         0.0426
     47 H15         7.1808   -3.7941   -1.8972 H         1 <0>         0.0426
     48 H16         6.7638   -4.6362   -0.3780 H         1 <0>         0.0426
@<TRIPOS>BOND
     1    1   18 1
     2    2   25 1
     3    3   25 1
     4    4   25 1
     5    5   17 1
     6    5   26 1
     7    6   24 2
     8    7   31 2
     9    8   12 1
    10    8   24 am
    11    8   35 1
    12    9   15 1
    13    9   24 am
    14    9   38 1
    15   10   28 ar
    16   10   30 ar
    17   11   31 am
    18   11   32 1
    19   11   45 1
    20   12   14 ar
    21   12   16 ar
    22   13   14 ar
    23   13   18 ar
    24   13   25 1
    25   14   33 1
    26   15   19 ar
    27   15   20 ar
    28   16   21 ar
    29   16   34 1
    30   17   22 ar
    31   17   23 ar
    32   18   21 ar
    33   19   22 ar
    34   19   36 1
    35   20   23 ar
    36   20   37 1
    37   21   39 1
    38   22   40 1
    39   23   41 1
    40   26   27 ar
    41   26   29 ar
    42   27   28 ar
    43   27   42 1
    44   28   31 1
    45   29   30 ar
    46   29   43 1
    47   30   44 1
    48   32   46 1
    49   32   47 1
    50   32   48 1
