@<TRIPOS>MOLECULE
DB00182
   23    23     0     0     0
SMALL
USER_CHARGES

@<TRIPOS>ATOM
      1 N1         -3.1884   -0.4914    0.2384 N.3       1 <0>        -0.3272
      2 C1         -1.8306   -0.2139   -0.2400 C.3       1 <0>         0.0060
      3 C2         -0.8184   -0.5120    0.8823 C.3       1 <0>        -0.0127
      4 C3          0.6131   -0.2969    0.4775 C.ar      1 <0>        -0.0459
      5 C4         -1.7759    1.2389   -0.7126 C.3       1 <0>        -0.0496
      6 C5          1.3354   -1.3474   -0.0739 C.ar      1 <0>        -0.0585
      7 C6          1.1975    0.9501    0.6603 C.ar      1 <0>        -0.0585
      8 C7          2.6641   -1.1479   -0.4491 C.ar      1 <0>        -0.0615
      9 C8          2.5261    1.1497    0.2851 C.ar      1 <0>        -0.0615
     10 C9          3.2594    0.1007   -0.2695 C.ar      1 <0>        -0.0617
     11 H1         -1.6282   -0.8670   -1.0978 H         1 <0>         0.0459
     12 H2         -0.9381   -1.5501    1.2225 H         1 <0>         0.0328
     13 H3         -1.0396    0.1049    1.7646 H         1 <0>         0.0328
     14 H4         -0.8332    1.4591   -1.2228 H         1 <0>         0.0245
     15 H5         -1.8915    1.9399    0.1216 H         1 <0>         0.0245
     16 H6         -2.5746    1.4454   -1.4350 H         1 <0>         0.0245
     17 H7          0.8808   -2.3234   -0.2203 H         1 <0>         0.0620
     18 H8          0.6391    1.7741    1.0955 H         1 <0>         0.0620
     19 H9         -3.2611   -1.4707    0.5113 H         1 <0>         0.1185
     20 H10        -3.8548   -0.3554   -0.5209 H         1 <0>         0.1185
     21 H11         3.2349   -1.9644   -0.8815 H         1 <0>         0.0618
     22 H12         2.9900    2.1216    0.4257 H         1 <0>         0.0618
     23 H13         4.2938    0.2561   -0.5614 H         1 <0>         0.0618
@<TRIPOS>BOND
     1    1    2 1
     2    1   19 1
     3    1   20 1
     4    2    3 1
     5    2    5 1
     6    2   11 1
     7    3    4 1
     8    3   12 1
     9    3   13 1
    10    4    6 ar
    11    4    7 ar
    12    5   14 1
    13    5   15 1
    14    5   16 1
    15    6    8 ar
    16    6   17 1
    17    7    9 ar
    18    7   18 1
    19    8   10 ar
    20    8   21 1
    21    9   10 ar
    22    9   22 1
    23   10   23 1
