@<TRIPOS>MOLECULE
DB00845
   55    59     0     0     0
SMALL
USER_CHARGES

@<TRIPOS>ATOM
      1 Cl1        -6.4755   -3.0447    0.5020 Cl        1 <0>        -0.0835
      2 Cl2         8.2225    2.3957    1.1425 Cl        1 <0>        -0.0835
      3 N1         -2.1454    0.9448   -0.1236 N.ar      1 <0>        -0.3058
      4 N2         -0.0360    2.8477   -0.4264 N.ar      1 <0>        -0.2437
      5 N3          3.3562   -0.4987   -0.5890 N.pl3     1 <0>        -0.3128
      6 N4          1.3840   -2.4316   -0.3091 N.2       1 <0>        -0.2792
      7 C1         -0.8123    0.5038   -0.2317 C.ar      1 <0>         0.0747
      8 C2          0.2228    1.5759   -0.3859 C.ar      1 <0>         0.0902
      9 C3         -2.4288    2.3520   -0.1674 C.ar      1 <0>         0.0725
     10 C4         -0.3813   -0.7695   -0.2144 C.2       1 <0>        -0.0089
     11 C5          1.0393   -1.1810   -0.3336 C.2       1 <0>         0.0819
     12 C6         -1.3693    3.2666   -0.3188 C.ar      1 <0>         0.0884
     13 C7          2.0534   -0.1057   -0.4819 C.cat     1 <0>         0.0588
     14 C8          1.6426    1.1657   -0.5026 C.2       1 <0>        -0.0110
     15 C9         -3.1743   -0.0039    0.0250 C.ar      1 <0>         0.0474
     16 C10        -3.7384    2.8611   -0.0614 C.ar      1 <0>        -0.0357
     17 C11         0.2710   -3.3534   -0.1577 C.3       1 <0>         0.0459
     18 C12        -1.6293    4.6440   -0.3644 C.ar      1 <0>        -0.0343
     19 C13        -3.8037   -0.5370   -1.1017 C.ar      1 <0>        -0.0364
     20 C14        -3.5698   -0.4142    1.2998 C.ar      1 <0>        -0.0364
     21 C15        -3.9852    4.2349   -0.1081 C.ar      1 <0>        -0.0597
     22 C16        -2.9310    5.1266   -0.2603 C.ar      1 <0>        -0.0596
     23 C17         4.5063    0.1857   -0.1799 C.ar      1 <0>         0.0314
     24 C18         0.6040   -4.6522   -0.8767 C.3       1 <0>        -0.0429
     25 C19         0.0149   -3.5794    1.3250 C.3       1 <0>        -0.0429
     26 C20        -4.8241   -1.4764   -0.9544 C.ar      1 <0>        -0.0414
     27 C21        -4.5903   -1.3535    1.4471 C.ar      1 <0>        -0.0414
     28 C22        -5.2175   -1.8846    0.3201 C.ar      1 <0>         0.0411
     29 C23         5.7167    0.0070   -0.8610 C.ar      1 <0>        -0.0392
     30 C24         4.4603    1.0566    0.9155 C.ar      1 <0>        -0.0392
     31 C25         6.8632    0.6883   -0.4527 C.ar      1 <0>        -0.0416
     32 C26         5.6068    1.7380    1.3239 C.ar      1 <0>        -0.0416
     33 C27         6.8082    1.5538    0.6397 C.ar      1 <0>         0.0411
     34 H1         -1.1564   -1.4949   -0.0354 H         1 <0>         0.0661
     35 H2          2.3467    1.9824   -0.6377 H         1 <0>         0.0659
     36 H3         -4.5950    2.2032    0.0584 H         1 <0>         0.0639
     37 H4         -0.6448   -3.0794   -0.6863 H         1 <0>         0.0539
     38 H5         -0.8105    5.3503   -0.4818 H         1 <0>         0.0639
     39 H6          3.5097   -1.4260   -0.9718 H         1 <0>         0.1522
     40 H7         -3.5065   -0.2270   -2.1004 H         1 <0>         0.0639
     41 H8         -3.0889   -0.0079    2.1861 H         1 <0>         0.0639
     42 H9         -5.0028    4.6054   -0.0254 H         1 <0>         0.0618
     43 H10        -3.1207    6.1950   -0.2968 H         1 <0>         0.0618
     44 H11         0.7786   -4.4734   -1.9436 H         1 <0>         0.0250
     45 H12        -0.2104   -5.3782   -0.7814 H         1 <0>         0.0250
     46 H13         1.5134   -5.1080   -0.4691 H         1 <0>         0.0250
     47 H14        -0.8048   -4.2908    1.4712 H         1 <0>         0.0250
     48 H15        -0.2494   -2.6562    1.8493 H         1 <0>         0.0250
     49 H16         0.9038   -3.9889    1.8187 H         1 <0>         0.0250
     50 H17        -5.3036   -1.8820   -1.8415 H         1 <0>         0.0633
     51 H18        -4.8860   -1.6627    2.4463 H         1 <0>         0.0633
     52 H19         5.7734   -0.6643   -1.7146 H         1 <0>         0.0636
     53 H20         3.5507    1.2010    1.4925 H         1 <0>         0.0636
     54 H21         7.7924    0.5354   -0.9955 H         1 <0>         0.0633
     55 H22         5.5511    2.4044    2.1809 H         1 <0>         0.0633
@<TRIPOS>BOND
     1    1   28 1
     2    2   33 1
     3    3    7 ar
     4    3    9 ar
     5    3   15 1
     6    4    8 ar
     7    4   12 ar
     8    5   13 1
     9    5   23 1
    10    5   39 1
    11    6   11 2
    12    6   17 1
    13    7    8 ar
    14    7   10 2
    15    8   14 2
    16    9   12 ar
    17    9   16 ar
    18   10   11 1
    19   10   34 1
    20   11   13 1
    21   12   18 ar
    22   13   14 1
    23   14   35 1
    24   15   19 ar
    25   15   20 ar
    26   16   21 ar
    27   16   36 1
    28   17   24 1
    29   17   25 1
    30   17   37 1
    31   18   22 ar
    32   18   38 1
    33   19   26 ar
    34   19   40 1
    35   20   27 ar
    36   20   41 1
    37   21   22 ar
    38   21   42 1
    39   22   43 1
    40   23   29 ar
    41   23   30 ar
    42   24   44 1
    43   24   45 1
    44   24   46 1
    45   25   47 1
    46   25   48 1
    47   25   49 1
    48   26   28 ar
    49   26   50 1
    50   27   28 ar
    51   27   51 1
    52   29   31 ar
    53   29   52 1
    54   30   32 ar
    55   30   53 1
    56   31   33 ar
    57   31   54 1
    58   32   33 ar
    59   32   55 1
