@<TRIPOS>MOLECULE
DB00750
   36    36     0     0     0
SMALL
USER_CHARGES

@<TRIPOS>ATOM
      1 O1          0.2414   -1.1740   -1.8950 O.2       1 <0>        -0.2738
      2 N1          2.5735   -0.8951   -0.2149 N.3       1 <0>        -0.3059
      3 N2         -0.7868   -0.7311    0.1682 N.am      1 <0>        -0.2840
      4 C1          1.4156   -1.7129    0.1384 C.3       1 <0>         0.0822
      5 C2          2.3336    0.5046    0.1017 C.3       1 <0>        -0.0037
      6 C3          3.5478    1.3492   -0.2762 C.3       1 <0>        -0.0433
      7 C4          0.2353   -1.1753   -0.6672 C.2       1 <0>         0.2340
      8 C5          1.7040   -3.1738   -0.1867 C.3       1 <0>        -0.0411
      9 C6         -2.0301   -0.1714   -0.2110 C.ar      1 <0>         0.0364
     10 C7         -2.9422    0.2213    0.7557 C.ar      1 <0>        -0.0292
     11 C8          3.3307    2.8153    0.0649 C.3       1 <0>        -0.0641
     12 C9         -2.3069   -0.0291   -1.5618 C.ar      1 <0>        -0.0402
     13 C10        -4.1622    0.7709    0.3617 C.ar      1 <0>        -0.0571
     14 C11        -2.6559    0.0732    2.2149 C.3       1 <0>        -0.0380
     15 C12        -3.5268    0.5205   -1.9557 C.ar      1 <0>        -0.0600
     16 C13        -4.4545    0.9204   -0.9940 C.ar      1 <0>        -0.0614
     17 H1          1.2289   -1.6400    1.2166 H         1 <0>         0.0554
     18 H2          1.4779    0.9123   -0.4472 H         1 <0>         0.0424
     19 H3          2.1314    0.6218    1.1738 H         1 <0>         0.0424
     20 H4          3.3968   -1.2277    0.2864 H         1 <0>         0.1226
     21 H5          4.4380    0.9895    0.2543 H         1 <0>         0.0275
     22 H6          3.7514    1.2570   -1.3501 H         1 <0>         0.0275
     23 H7          1.9303   -3.3156   -1.2498 H         1 <0>         0.0249
     24 H8          2.5520   -3.5498    0.3958 H         1 <0>         0.0249
     25 H9          0.8317   -3.7951    0.0446 H         1 <0>         0.0249
     26 H10        -0.6307   -0.8115    1.1687 H         1 <0>         0.1549
     27 H11         2.4693    3.2211   -0.4753 H         1 <0>         0.0230
     28 H12         3.1575    2.9474    1.1377 H         1 <0>         0.0230
     29 H13         4.2118    3.4028   -0.2115 H         1 <0>         0.0230
     30 H14        -1.6487   -0.3095   -2.3697 H         1 <0>         0.0636
     31 H15        -4.8965    1.0880    1.0974 H         1 <0>         0.0621
     32 H16        -3.4871    0.4349    2.8303 H         1 <0>         0.0278
     33 H17        -2.4993   -0.9797    2.4720 H         1 <0>         0.0278
     34 H18        -1.7712    0.6548    2.4949 H         1 <0>         0.0278
     35 H19        -3.7558    0.6381   -3.0111 H         1 <0>         0.0618
     36 H20        -5.4043    1.3484   -1.3008 H         1 <0>         0.0618
@<TRIPOS>BOND
     1    1    7 2
     2    2    4 1
     3    2    5 1
     4    2   20 1
     5    3    7 am
     6    3    9 1
     7    3   26 1
     8    4    7 1
     9    4    8 1
    10    4   17 1
    11    5    6 1
    12    5   18 1
    13    5   19 1
    14    6   11 1
    15    6   21 1
    16    6   22 1
    17    8   23 1
    18    8   24 1
    19    8   25 1
    20    9   10 ar
    21    9   12 ar
    22   10   13 ar
    23   10   14 1
    24   11   27 1
    25   11   28 1
    26   11   29 1
    27   12   15 ar
    28   12   30 1
    29   13   16 ar
    30   13   31 1
    31   14   32 1
    32   14   33 1
    33   14   34 1
    34   15   16 ar
    35   15   35 1
    36   16   36 1
