@<TRIPOS>MOLECULE
DB00578
   44    46     0     0     0
SMALL
USER_CHARGES

@<TRIPOS>ATOM
      1 S1          1.0708    0.5524   -0.7556 S.3       1 <0>        -0.1273
      2 O1          2.1313   -3.1290    1.4202 O.2       1 <0>        -0.2734
      3 O2          5.4410    0.2760    1.0691 O.3       1 <0>        -0.4793
      4 O3          5.2419   -1.6006   -0.2096 O.2       1 <0>        -0.2489
      5 O4         -1.7781   -1.4635   -1.7547 O.2       1 <0>        -0.2745
      6 O5         -5.0221   -1.8430    1.1485 O.3       1 <0>        -0.4799
      7 O6         -4.1107   -3.0387   -0.5466 O.2       1 <0>        -0.2498
      8 N1          2.5907   -1.4744   -0.1990 N.am      1 <0>        -0.2708
      9 N2         -0.5387   -1.8967    0.1594 N.am      1 <0>        -0.3008
     10 C1          1.5357   -1.1684   -1.1697 C.3       1 <0>         0.1005
     11 C2          2.8088    0.9294   -0.2016 C.3       1 <0>         0.0417
     12 C3          3.2706   -0.3827    0.4680 C.3       1 <0>         0.1379
     13 C4          0.7050   -2.2841   -0.5211 C.3       1 <0>         0.1277
     14 C5          1.9052   -2.4747    0.4276 C.2       1 <0>         0.2402
     15 C6          3.6217    1.3333   -1.4392 C.3       1 <0>        -0.0484
     16 C7          2.7717    2.0843    0.8008 C.3       1 <0>        -0.0484
     17 C8          4.7378   -0.6604    0.3864 C.2       1 <0>         0.3269
     18 C9         -1.6906   -1.5139   -0.5292 C.2       1 <0>         0.2320
     19 C10        -2.8563   -1.1621    0.3934 C.3       1 <0>         0.1570
     20 C11        -3.2607    0.2919    0.2042 C.ar      1 <0>        -0.0249
     21 C12        -4.0381   -2.1114    0.2490 C.2       1 <0>         0.3212
     22 C13        -2.6578    1.2596    0.9823 C.ar      1 <0>        -0.0573
     23 C14        -4.2190    0.6013   -0.7398 C.ar      1 <0>        -0.0573
     24 C15        -3.0289    2.5931    0.8092 C.ar      1 <0>        -0.0615
     25 C16        -4.5901    1.9347   -0.9132 C.ar      1 <0>        -0.0615
     26 C17        -3.9950    2.9305   -0.1385 C.ar      1 <0>        -0.0617
     27 H1          1.8470   -1.3418   -2.2038 H         1 <0>         0.0640
     28 H2          2.9814   -0.4206    1.5269 H         1 <0>         0.0631
     29 H3          0.5498   -3.1561   -1.1676 H         1 <0>         0.0622
     30 H4          4.6406    1.6291   -1.1656 H         1 <0>         0.0244
     31 H5          3.7036    0.5174   -2.1660 H         1 <0>         0.0244
     32 H6          3.1722    2.1933   -1.9501 H         1 <0>         0.0244
     33 H7          2.1663    1.8401    1.6815 H         1 <0>         0.0244
     34 H8          3.7776    2.3332    1.1555 H         1 <0>         0.0244
     35 H9          2.3548    2.9932    0.3511 H         1 <0>         0.0244
     36 H10        -0.5690   -1.9066    1.1760 H         1 <0>         0.1496
     37 H11        -2.5293   -1.2969    1.4345 H         1 <0>         0.0559
     38 H12         6.4072    0.1118    1.0268 H         1 <0>         0.2951
     39 H13        -1.9028    1.0057    1.7204 H         1 <0>         0.0621
     40 H14        -4.6837   -0.1540   -1.3657 H         1 <0>         0.0621
     41 H15        -2.5646    3.3686    1.4113 H         1 <0>         0.0618
     42 H16        -5.3393    2.1983   -1.6539 H         1 <0>         0.0618
     43 H17        -5.7746   -2.4665    1.0630 H         1 <0>         0.2951
     44 H18        -4.2830    3.9688   -0.2744 H         1 <0>         0.0618
@<TRIPOS>BOND
     1    1   10 1
     2    1   11 1
     3    2   14 2
     4    3   17 1
     5    3   38 1
     6    4   17 2
     7    5   18 2
     8    6   21 1
     9    6   43 1
    10    7   21 2
    11    8   10 1
    12    8   12 1
    13    8   14 am
    14    9   13 1
    15    9   18 am
    16    9   36 1
    17   10   13 1
    18   10   27 1
    19   11   12 1
    20   11   15 1
    21   11   16 1
    22   12   17 1
    23   12   28 1
    24   13   14 1
    25   13   29 1
    26   15   30 1
    27   15   31 1
    28   15   32 1
    29   16   33 1
    30   16   34 1
    31   16   35 1
    32   18   19 1
    33   19   20 1
    34   19   21 1
    35   19   37 1
    36   20   22 ar
    37   20   23 ar
    38   22   24 ar
    39   22   39 1
    40   23   25 ar
    41   23   40 1
    42   24   26 ar
    43   24   41 1
    44   25   26 ar
    45   25   42 1
    46   26   44 1
