@<TRIPOS>MOLECULE
DB00603
   62    65     0     0     0
SMALL
USER_CHARGES

@<TRIPOS>ATOM
      1 O1         -3.3769    0.1012   -1.1283 O.3       1 <0>        -0.4500
      2 O2         -5.1110    0.0627    1.6331 O.2       1 <0>        -0.2934
      3 O3          6.1698   -0.7121   -2.2324 O.2       1 <0>        -0.2927
      4 O4         -5.4118    1.1755   -0.9229 O.2       1 <0>        -0.2511
      5 C1         -1.7541   -0.2978    0.6690 C.3       1 <0>         0.0179
      6 C2         -0.8889    0.8937    0.1958 C.3       1 <0>        -0.0283
      7 C3          0.5999    0.7268    0.5266 C.3       1 <0>        -0.0334
      8 C4          1.1311   -0.5637   -0.1634 C.3       1 <0>        -0.0288
      9 C5         -3.1570    0.2298    0.2737 C.3       1 <0>         0.1758
     10 C6          2.6714   -0.8003    0.0814 C.3       1 <0>        -0.0069
     11 C7         -1.2579   -1.5486   -0.0736 C.3       1 <0>        -0.0430
     12 C8          0.2429   -1.7962    0.1621 C.3       1 <0>        -0.0485
     13 C9         -1.6289    2.1103    0.7460 C.3       1 <0>        -0.0453
     14 C10         1.4146    1.9418    0.0660 C.3       1 <0>        -0.0433
     15 C11        -3.1199    1.7267    0.6529 C.3       1 <0>        -0.0050
     16 C12         2.9058    1.7731    0.3867 C.3       1 <0>        -0.0215
     17 C13         3.4553    0.4903   -0.2435 C.2       1 <0>        -0.0572
     18 C14        -1.6833   -0.5386    2.2026 C.3       1 <0>        -0.0552
     19 C15         3.1267   -1.9650   -0.8483 C.3       1 <0>        -0.0366
     20 C16         2.9704   -1.1950    1.5463 C.3       1 <0>        -0.0555
     21 C17        -4.3034   -0.5054    0.8997 C.2       1 <0>         0.1741
     22 C18         4.6332   -2.0692   -1.0018 C.3       1 <0>         0.0107
     23 C19         4.5669    0.4896   -1.0030 C.2       1 <0>        -0.0192
     24 C20         3.6385    3.0756    0.0313 C.3       1 <0>        -0.0587
     25 C21         5.1858   -0.7629   -1.4972 C.2       1 <0>         0.1561
     26 C22        -4.4191   -1.9725    0.5851 C.3       1 <0>        -0.0020
     27 C23        -4.5515    0.6211   -1.5935 C.2       1 <0>         0.3049
     28 C24        -4.6455    0.4152   -3.0751 C.3       1 <0>         0.0333
     29 H1         -0.9585    0.9644   -0.9024 H         1 <0>         0.0310
     30 H2          0.7194    0.6444    1.6119 H         1 <0>         0.0307
     31 H3          1.0125   -0.3952   -1.2465 H         1 <0>         0.0312
     32 H4         -1.4203   -1.4488   -1.1540 H         1 <0>         0.0272
     33 H5         -1.8019   -2.4435    0.2414 H         1 <0>         0.0272
     34 H6          0.3960   -2.1127    1.1986 H         1 <0>         0.0268
     35 H7          0.5365   -2.6453   -0.4646 H         1 <0>         0.0268
     36 H8         -1.4152    3.0132    0.1646 H         1 <0>         0.0270
     37 H9         -1.3496    2.3140    1.7859 H         1 <0>         0.0270
     38 H10         1.0392    2.8420    0.5683 H         1 <0>         0.0274
     39 H11         1.2774    2.1014   -1.0121 H         1 <0>         0.0274
     40 H12        -3.5858    1.9362    1.6224 H         1 <0>         0.0308
     41 H13        -3.5840    2.3954   -0.0772 H         1 <0>         0.0308
     42 H14         3.0063    1.6624    1.4750 H         1 <0>         0.0343
     43 H15        -2.0885    0.3001    2.7774 H         1 <0>         0.0237
     44 H16        -2.2514   -1.4285    2.4911 H         1 <0>         0.0237
     45 H17        -0.6628   -0.6993    2.5596 H         1 <0>         0.0237
     46 H18         2.6924   -1.8259   -1.8483 H         1 <0>         0.0278
     47 H19         2.7516   -2.9267   -0.4784 H         1 <0>         0.0278
     48 H20         2.5316   -0.4961    2.2648 H         1 <0>         0.0238
     49 H21         2.5818   -2.1911    1.7830 H         1 <0>         0.0238
     50 H22         4.0485   -1.2182    1.7437 H         1 <0>         0.0238
     51 H23         4.8678   -2.8484   -1.7354 H         1 <0>         0.0345
     52 H24         5.1256   -2.3286   -0.0596 H         1 <0>         0.0345
     53 H25         5.1098    1.3948   -1.2482 H         1 <0>         0.0652
     54 H26         3.5956    3.2828   -1.0437 H         1 <0>         0.0235
     55 H27         3.1852    3.9271    0.5512 H         1 <0>         0.0235
     56 H28         4.6893    3.0365    0.3385 H         1 <0>         0.0235
     57 H29        -4.1233   -2.1927   -0.4426 H         1 <0>         0.0307
     58 H30        -3.8261   -2.5604    1.2870 H         1 <0>         0.0307
     59 H31        -5.4679   -2.2686    0.6884 H         1 <0>         0.0307
     60 H32        -4.6272   -0.6537   -3.3016 H         1 <0>         0.0342
     61 H33        -3.8195    0.9292   -3.5730 H         1 <0>         0.0342
     62 H34        -5.5876    0.8333   -3.4405 H         1 <0>         0.0342
@<TRIPOS>BOND
     1    1    9 1
     2    1   27 1
     3    2   21 2
     4    3   25 2
     5    4   27 2
     6    5    6 1
     7    5    9 1
     8    5   11 1
     9    5   18 1
    10    6    7 1
    11    6   13 1
    12    6   29 1
    13    7    8 1
    14    7   14 1
    15    7   30 1
    16    8   10 1
    17    8   12 1
    18    8   31 1
    19    9   15 1
    20    9   21 1
    21   10   17 1
    22   10   19 1
    23   10   20 1
    24   11   12 1
    25   11   32 1
    26   11   33 1
    27   12   34 1
    28   12   35 1
    29   13   15 1
    30   13   36 1
    31   13   37 1
    32   14   16 1
    33   14   38 1
    34   14   39 1
    35   15   40 1
    36   15   41 1
    37   16   17 1
    38   16   24 1
    39   16   42 1
    40   17   23 2
    41   18   43 1
    42   18   44 1
    43   18   45 1
    44   19   22 1
    45   19   46 1
    46   19   47 1
    47   20   48 1
    48   20   49 1
    49   20   50 1
    50   21   26 1
    51   22   25 1
    52   22   51 1
    53   22   52 1
    54   23   25 1
    55   23   53 1
    56   24   54 1
    57   24   55 1
    58   24   56 1
    59   26   57 1
    60   26   58 1
    61   26   59 1
    62   27   28 1
    63   28   60 1
    64   28   61 1
    65   28   62 1
