@<TRIPOS>MOLECULE
DB00557
   53    55     0     0     0
SMALL
USER_CHARGES

@<TRIPOS>ATOM
      1 Cl1        -4.2214    5.5254   -1.0303 Cl        1 <0>        -0.0835
      2 O1          5.3681   -0.3683   -0.3274 O.3       1 <0>        -0.3763
      3 O2          8.0591   -1.0405    0.0418 O.3       1 <0>        -0.3927
      4 N1         -1.0534   -0.2708    0.0753 N.3       1 <0>        -0.2891
      5 N2          1.7750   -0.7916    0.3721 N.3       1 <0>        -0.2977
      6 C1         -0.1051    0.8124    0.3628 C.3       1 <0>         0.0126
      7 C2         -0.5661   -1.5390    0.6316 C.3       1 <0>         0.0126
      8 C3          1.2876    0.4773   -0.1822 C.3       1 <0>         0.0118
      9 C4          0.8260   -1.8747    0.0855 C.3       1 <0>         0.0118
     10 C5         -2.3805    0.0491    0.5972 C.3       1 <0>         0.0610
     11 C6          3.1014   -1.1117   -0.1517 C.3       1 <0>         0.0224
     12 C7         -2.8464    1.4374    0.1842 C.ar      1 <0>        -0.0258
     13 C8         -3.4102   -1.0183    0.2572 C.ar      1 <0>        -0.0259
     14 C9          4.0918   -0.0082    0.1845 C.3       1 <0>         0.0605
     15 C10        -2.5482    2.5111    0.9985 C.ar      1 <0>        -0.0554
     16 C11        -3.5539    1.5817   -0.9919 C.ar      1 <0>        -0.0554
     17 C12        -4.4661   -1.2261    1.1214 C.ar      1 <0>        -0.0568
     18 C13        -3.2580   -1.7463   -0.9052 C.ar      1 <0>        -0.0568
     19 C14        -2.9762    3.7838    0.6204 C.ar      1 <0>        -0.0431
     20 C15        -3.9818    2.8543   -1.3701 C.ar      1 <0>        -0.0431
     21 C16        -5.4103   -2.2044    0.8098 C.ar      1 <0>        -0.0614
     22 C17        -4.2024   -2.7247   -1.2168 C.ar      1 <0>        -0.0614
     23 C18        -3.6930    3.9555   -0.5640 C.ar      1 <0>         0.0410
     24 C19        -5.2785   -2.9536   -0.3592 C.ar      1 <0>        -0.0617
     25 C20         6.3429    0.6264   -0.0450 C.3       1 <0>         0.0708
     26 C21         7.6831    0.1755   -0.5932 C.3       1 <0>         0.0676
     27 H1         -0.3813    1.7403   -0.1473 H         1 <0>         0.0439
     28 H2         -0.0345    1.0093    1.4410 H         1 <0>         0.0439
     29 H3         -1.2034   -2.3955    0.3968 H         1 <0>         0.0439
     30 H4         -0.5144   -1.4828    1.7284 H         1 <0>         0.0439
     31 H5          1.9181    1.3198    0.1161 H         1 <0>         0.0439
     32 H6          1.2624    0.4461   -1.2799 H         1 <0>         0.0439
     33 H7          0.7622   -2.0664   -0.9943 H         1 <0>         0.0439
     34 H8          1.1695   -2.8008    0.5624 H         1 <0>         0.0439
     35 H9         -2.3119    0.0543    1.6976 H         1 <0>         0.0562
     36 H10         3.0824   -1.2719   -1.2382 H         1 <0>         0.0449
     37 H11         3.4647   -2.0500    0.2871 H         1 <0>         0.0449
     38 H12         3.8266    0.9423   -0.2856 H         1 <0>         0.0572
     39 H13         4.1568    0.1317    1.2704 H         1 <0>         0.0572
     40 H14        -2.0040    2.3916    1.9303 H         1 <0>         0.0621
     41 H15        -3.7796    0.7597   -1.6604 H         1 <0>         0.0621
     42 H16        -4.5779   -0.6467    2.0329 H         1 <0>         0.0621
     43 H17        -2.4499   -1.5756   -1.6099 H         1 <0>         0.0621
     44 H18        -2.7467    4.6322    1.2601 H         1 <0>         0.0632
     45 H19        -4.5349    2.9743   -2.2982 H         1 <0>         0.0632
     46 H20        -6.2487   -2.3821    1.4771 H         1 <0>         0.0618
     47 H21        -4.1039   -3.3036   -2.1305 H         1 <0>         0.0618
     48 H22        -6.0147   -3.7141   -0.6028 H         1 <0>         0.0618
     49 H23         6.4110    0.7622    1.0407 H         1 <0>         0.0583
     50 H24         6.0535    1.5748   -0.5108 H         1 <0>         0.0583
     51 H25         7.6171   -0.0234   -1.6670 H         1 <0>         0.0580
     52 H26         8.4608    0.9240   -0.4158 H         1 <0>         0.0580
     53 H27         8.1375   -0.8615    0.9945 H         1 <0>         0.2095
@<TRIPOS>BOND
     1    1   23 1
     2    2   14 1
     3    2   25 1
     4    3   26 1
     5    3   53 1
     6    4    6 1
     7    4    7 1
     8    4   10 1
     9    5    8 1
    10    5    9 1
    11    5   11 1
    12    6    8 1
    13    6   27 1
    14    6   28 1
    15    7    9 1
    16    7   29 1
    17    7   30 1
    18    8   31 1
    19    8   32 1
    20    9   33 1
    21    9   34 1
    22   10   12 1
    23   10   13 1
    24   10   35 1
    25   11   14 1
    26   11   36 1
    27   11   37 1
    28   12   15 ar
    29   12   16 ar
    30   13   17 ar
    31   13   18 ar
    32   14   38 1
    33   14   39 1
    34   15   19 ar
    35   15   40 1
    36   16   20 ar
    37   16   41 1
    38   17   21 ar
    39   17   42 1
    40   18   22 ar
    41   18   43 1
    42   19   23 ar
    43   19   44 1
    44   20   23 ar
    45   20   45 1
    46   21   24 ar
    47   21   46 1
    48   22   24 ar
    49   22   47 1
    50   24   48 1
    51   25   26 1
    52   25   49 1
    53   25   50 1
    54   26   51 1
    55   26   52 1
