@<TRIPOS>MOLECULE
DB00745
   34    35     0     0     0
SMALL
USER_CHARGES

@<TRIPOS>ATOM
      1 S1          0.8377   -1.4241    0.8445 S.o       1 <0>         0.0429
      2 O1          0.4932   -2.8315    0.5070 O.2       1 <0>        -0.2558
      3 O2          3.8236   -1.5761    1.8726 O.2       1 <0>        -0.2750
      4 N1          4.2399   -2.5489   -0.1675 N.am      1 <0>        -0.3286
      5 C1         -0.1967   -0.3649   -0.2666 C.3       1 <0>         0.0851
      6 C2          0.1799    1.0776   -0.2252 C.ar      1 <0>        -0.0277
      7 C3         -1.6879   -0.6299   -0.0634 C.ar      1 <0>        -0.0277
      8 C4          2.3922   -1.0087    0.0255 C.3       1 <0>         0.1004
      9 C5          0.1683    1.8355   -1.3962 C.ar      1 <0>        -0.0571
     10 C6         -2.3841   -1.2838   -1.0551 C.ar      1 <0>        -0.0571
     11 C7          0.5439    1.6689    0.9846 C.ar      1 <0>        -0.0571
     12 C8         -2.2814   -0.2048    1.1041 C.ar      1 <0>        -0.0571
     13 C9          0.5208    3.1845   -1.3574 C.ar      1 <0>        -0.0615
     14 C10        -3.7453   -1.5255   -0.8696 C.ar      1 <0>        -0.0615
     15 C11         0.8964    3.0179    1.0234 C.ar      1 <0>        -0.0615
     16 C12        -3.6425   -0.4466    1.2897 C.ar      1 <0>        -0.0615
     17 C13         0.8848    3.7758   -0.1476 C.ar      1 <0>        -0.0617
     18 C14        -4.3745   -1.1070    0.3029 C.ar      1 <0>        -0.0617
     19 C15         3.5445   -1.7220    0.6845 C.2       1 <0>         0.2228
     20 H1          0.0658   -0.7393   -1.2666 H         1 <0>         0.0535
     21 H2          2.3204   -1.2736   -1.0339 H         1 <0>         0.0496
     22 H3          2.6077    0.0593    0.1024 H         1 <0>         0.0496
     23 H4         -0.1148    1.3887   -2.3456 H         1 <0>         0.0621
     24 H5         -1.9052   -1.6147   -1.9713 H         1 <0>         0.0621
     25 H6          0.5502    1.1194    1.9211 H         1 <0>         0.0621
     26 H7         -1.7323    0.2972    1.8926 H         1 <0>         0.0621
     27 H8          0.5112    3.7749   -2.2690 H         1 <0>         0.0618
     28 H9         -4.3153   -2.0399   -1.6377 H         1 <0>         0.0618
     29 H10         1.1763    3.4796    1.9657 H         1 <0>         0.0618
     30 H11        -4.1320   -0.1239    2.2040 H         1 <0>         0.0618
     31 H12         1.1581    4.8264   -0.1172 H         1 <0>         0.0618
     32 H13        -5.4342   -1.2960    0.4478 H         1 <0>         0.0618
     33 H14         5.0362   -3.0840    0.1631 H         1 <0>         0.1450
     34 H15         3.9948   -2.6606   -1.1459 H         1 <0>         0.1450
@<TRIPOS>BOND
     1    1    2 2
     2    1    5 1
     3    1    8 1
     4    3   19 2
     5    4   19 am
     6    4   33 1
     7    4   34 1
     8    5    6 1
     9    5    7 1
    10    5   20 1
    11    6    9 ar
    12    6   11 ar
    13    7   10 ar
    14    7   12 ar
    15    8   19 1
    16    8   21 1
    17    8   22 1
    18    9   13 ar
    19    9   23 1
    20   10   14 ar
    21   10   24 1
    22   11   15 ar
    23   11   25 1
    24   12   16 ar
    25   12   26 1
    26   13   17 ar
    27   13   27 1
    28   14   18 ar
    29   14   28 1
    30   15   17 ar
    31   15   29 1
    32   16   18 ar
    33   16   30 1
    34   17   31 1
    35   18   32 1
