@<TRIPOS>MOLECULE
DB00413
   31    32     0     0     0
SMALL
USER_CHARGES

@<TRIPOS>ATOM
      1 S1          2.8539    2.0201   -0.2779 S.3       1 <0>        -0.0573
      2 N1         -1.5529   -0.8722   -0.3156 N.3       1 <0>        -0.3129
      3 N2          4.0264   -0.2427    0.1924 N.2       1 <0>        -0.2298
      4 N3          5.4629    1.6338    0.0824 N.pl3     1 <0>        -0.3375
      5 C1         -0.1756   -0.7258    0.1508 C.3       1 <0>         0.0125
      6 C2          0.6703   -1.9378   -0.3017 C.3       1 <0>        -0.0318
      7 C3          0.4096    0.6057   -0.3749 C.3       1 <0>        -0.0041
      8 C4          2.1151   -1.8565    0.2272 C.3       1 <0>        -0.0081
      9 C5          1.8891    0.6218   -0.1808 C.2       1 <0>         0.0157
     10 C6          2.6748   -0.4861    0.0676 C.2       1 <0>         0.0538
     11 C7         -2.3771    0.2303    0.1554 C.3       1 <0>        -0.0041
     12 C8         -3.8269    0.0449   -0.2797 C.3       1 <0>        -0.0433
     13 C9          4.2380    1.0458    0.0269 C.2       1 <0>         0.1560
     14 C10        -4.7416    1.1513    0.2273 C.3       1 <0>        -0.0641
     15 H1         -0.1650   -0.7128    1.2504 H         1 <0>         0.0464
     16 H2          0.6907   -1.9791   -1.3995 H         1 <0>         0.0284
     17 H3          0.2183   -2.8762    0.0429 H         1 <0>         0.0284
     18 H4         -0.0177    1.4610    0.1610 H         1 <0>         0.0334
     19 H5          0.1961    0.7284   -1.4448 H         1 <0>         0.0334
     20 H6          2.7409   -2.5871   -0.2969 H         1 <0>         0.0329
     21 H7          2.1271   -2.1170    1.2924 H         1 <0>         0.0329
     22 H8         -1.9350   -1.7564    0.0187 H         1 <0>         0.1222
     23 H9         -2.0503    1.1879   -0.2612 H         1 <0>         0.0424
     24 H10        -2.3361    0.3011    1.2493 H         1 <0>         0.0424
     25 H11        -4.2069   -0.9159    0.0898 H         1 <0>         0.0275
     26 H12        -3.8855    0.0106   -1.3747 H         1 <0>         0.0275
     27 H13        -4.7405    1.1888    1.3213 H         1 <0>         0.0230
     28 H14        -4.4211    2.1272   -0.1508 H         1 <0>         0.0230
     29 H15        -5.7692    0.9773   -0.1066 H         1 <0>         0.0230
     30 H16         6.3055    1.0971    0.2600 H         1 <0>         0.1442
     31 H17         5.5829    2.6325   -0.0506 H         1 <0>         0.1442
@<TRIPOS>BOND
     1    1    9 1
     2    1   13 1
     3    2    5 1
     4    2   11 1
     5    2   22 1
     6    3   10 1
     7    3   13 2
     8    4   13 1
     9    4   30 1
    10    4   31 1
    11    5    6 1
    12    5    7 1
    13    5   15 1
    14    6    8 1
    15    6   16 1
    16    6   17 1
    17    7    9 1
    18    7   18 1
    19    7   19 1
    20    8   10 1
    21    8   20 1
    22    8   21 1
    23    9   10 2
    24   11   12 1
    25   11   23 1
    26   11   24 1
    27   12   14 1
    28   12   25 1
    29   12   26 1
    30   14   27 1
    31   14   28 1
    32   14   29 1
