@<TRIPOS>MOLECULE
DB00338
   43    45     0     0     0
SMALL
USER_CHARGES

@<TRIPOS>ATOM
      1 S1          0.1217    0.8752    0.8611 S.o       1 <0>         0.0954
      2 O1         -5.3721   -0.7877    0.9959 O.3       1 <0>        -0.4945
      3 O2          0.0713    2.3833    0.7155 O.2       1 <0>        -0.2488
      4 O3          7.5047   -0.3432   -0.3093 O.3       1 <0>        -0.4950
      5 N1          2.9120    0.9840    0.7504 N.pl3     1 <0>        -0.3309
      6 N2          2.0111   -0.8000   -0.2223 N.2       1 <0>        -0.2200
      7 N3         -2.6684    1.6514   -1.0130 N.ar      1 <0>        -0.2582
      8 C1         -0.8285    0.1750   -0.5192 C.3       1 <0>         0.0734
      9 C2         -2.2890    0.5055   -0.4114 C.ar      1 <0>         0.0603
     10 C3         -3.1415   -0.3427    0.2695 C.ar      1 <0>         0.0136
     11 C4          1.7645    0.3110    0.4349 C.cat     1 <0>         0.1981
     12 C5          3.9695    0.2591    0.2640 C.ar      1 <0>         0.0704
     13 C6         -4.4844    0.0113    0.3382 C.ar      1 <0>         0.1290
     14 C7          3.3812   -0.8494   -0.3387 C.ar      1 <0>         0.0903
     15 C8         -4.9203    1.1843   -0.2681 C.ar      1 <0>         0.0095
     16 C9         -2.6491   -1.5959    0.9106 C.3       1 <0>        -0.0345
     17 C10         5.3482    0.4713    0.2986 C.ar      1 <0>         0.0055
     18 C11        -3.9811    1.9626   -0.9252 C.ar      1 <0>         0.0343
     19 C12         4.2017   -1.8135   -0.9485 C.ar      1 <0>        -0.0308
     20 C13         6.1498   -0.4985   -0.3128 C.ar      1 <0>         0.1222
     21 C14         5.5888   -1.6212   -0.9260 C.ar      1 <0>        -0.0178
     22 C15        -6.3474    1.6070   -0.2230 C.3       1 <0>        -0.0348
     23 C16        -6.0157   -1.8051    0.2323 C.3       1 <0>         0.0788
     24 C17         8.0205    0.8214    0.3309 C.3       1 <0>         0.0788
     25 H1         -0.6549   -0.9034   -0.5780 H         1 <0>         0.0470
     26 H2         -0.4280    0.6054   -1.4452 H         1 <0>         0.0470
     27 H3          2.9724    1.8603    1.2518 H         1 <0>         0.1679
     28 H4         -1.7584   -1.4123    1.5191 H         1 <0>         0.0279
     29 H5         -3.3818   -2.0369    1.5940 H         1 <0>         0.0279
     30 H6         -2.4182   -2.3468    0.1479 H         1 <0>         0.0279
     31 H7          5.7191    1.3614    0.7893 H         1 <0>         0.0675
     32 H8         -4.2580    2.8886   -1.4197 H         1 <0>         0.0833
     33 H9          3.7753   -2.6891   -1.4273 H         1 <0>         0.0641
     34 H10         6.2326   -2.3617   -1.3950 H         1 <0>         0.0655
     35 H11        -6.4525    2.6775   -0.4314 H         1 <0>         0.0279
     36 H12        -6.9304    1.0578   -0.9685 H         1 <0>         0.0279
     37 H13        -6.7798    1.4351    0.7683 H         1 <0>         0.0279
     38 H14        -6.6676   -2.3731    0.9018 H         1 <0>         0.0660
     39 H15        -5.2810   -2.4906   -0.2016 H         1 <0>         0.0660
     40 H16        -6.6289   -1.3670   -0.5607 H         1 <0>         0.0660
     41 H17         7.6910    1.7374   -0.1711 H         1 <0>         0.0660
     42 H18         9.1111    0.7837    0.2397 H         1 <0>         0.0660
     43 H19         7.7910    0.8282    1.4019 H         1 <0>         0.0660
@<TRIPOS>BOND
     1    1    3 2
     2    1    8 1
     3    1   11 1
     4    2   13 1
     5    2   23 1
     6    4   20 1
     7    4   24 1
     8    5   11 1
     9    5   12 2
    10    5   27 1
    11    6   11 1
    12    6   14 2
    13    7    9 ar
    14    7   18 ar
    15    8    9 1
    16    8   25 1
    17    8   26 1
    18    9   10 ar
    19   10   13 ar
    20   10   16 1
    21   12   14 ar
    22   12   17 ar
    23   13   15 ar
    24   14   19 ar
    25   15   18 ar
    26   15   22 1
    27   16   28 1
    28   16   29 1
    29   16   30 1
    30   17   20 ar
    31   17   31 1
    32   18   32 1
    33   19   21 ar
    34   19   33 1
    35   20   21 ar
    36   21   34 1
    37   22   35 1
    38   22   36 1
    39   22   37 1
    40   23   38 1
    41   23   39 1
    42   23   40 1
    43   24   41 1
    44   24   42 1
    45   24   43 1
