@<TRIPOS>MOLECULE
DB00241
   32    32     0     0     0
SMALL
USER_CHARGES

@<TRIPOS>ATOM
      1 O1          1.1344   -0.9106    2.1215 O.2       1 <0>        -0.2742
      2 O2         -0.7861    0.5853   -1.8939 O.2       1 <0>        -0.2742
      3 O3         -0.6203   -3.8903   -0.8950 O.2       1 <0>        -0.2520
      4 N1          0.1682   -2.3901    0.6584 N.am      1 <0>        -0.2390
      5 N2         -0.7904   -1.6428   -1.3477 N.am      1 <0>        -0.2390
      6 C1         -0.3266    0.0005    0.4141 C.3       1 <0>         0.1270
      7 C2          0.4750    1.3063    0.5172 C.3       1 <0>        -0.0279
      8 C3          1.9014    1.1818   -0.0312 C.3       1 <0>        -0.0453
      9 C4         -1.6795    0.1768    1.1266 C.3       1 <0>        -0.0125
     10 C5          0.4191   -1.1142    1.1408 C.2       1 <0>         0.2357
     11 C6         -0.6289   -0.2977   -1.0510 C.2       1 <0>         0.2357
     12 C7          2.7104    0.0937    0.6762 C.3       1 <0>        -0.0626
     13 C8          1.8444    0.8900   -1.5326 C.3       1 <0>        -0.0626
     14 C9         -2.5125    1.2037    0.4345 C.2       1 <0>        -0.0897
     15 C10        -0.4426   -2.7223   -0.5448 C.2       1 <0>         0.3122
     16 C11        -3.7071    0.9462   -0.1096 C.2       1 <0>        -0.1026
     17 H1         -0.0125    2.1339   -0.0121 H         1 <0>         0.0282
     18 H2          0.5426    1.6211    1.5680 H         1 <0>         0.0282
     19 H3          2.4067    2.1449    0.1156 H         1 <0>         0.0296
     20 H4         -1.5286    0.4855    2.1692 H         1 <0>         0.0322
     21 H5         -2.2159   -0.7807    1.1738 H         1 <0>         0.0322
     22 H6          2.5491   -0.9339    0.3447 H         1 <0>         0.0232
     23 H7          2.8120    0.2669    1.7513 H         1 <0>         0.0232
     24 H8          3.7502    0.2465    0.3404 H         1 <0>         0.0232
     25 H9          1.6143   -0.1453   -1.7896 H         1 <0>         0.0232
     26 H10         2.8567    1.0377   -1.9355 H         1 <0>         0.0232
     27 H11         1.2305    1.6130   -2.0757 H         1 <0>         0.0232
     28 H12         0.5404   -3.1627    1.2035 H         1 <0>         0.1591
     29 H13        -1.1254   -1.8645   -2.2812 H         1 <0>         0.1591
     30 H14        -2.1671    2.2335    0.4236 H         1 <0>         0.0567
     31 H15        -4.2826    1.7405   -0.5722 H         1 <0>         0.0532
     32 H16        -4.1293   -0.0526   -0.1073 H         1 <0>         0.0532
@<TRIPOS>BOND
     1    1   10 2
     2    2   11 2
     3    3   15 2
     4    4   10 am
     5    4   15 am
     6    4   28 1
     7    5   11 am
     8    5   15 am
     9    5   29 1
    10    6    7 1
    11    6    9 1
    12    6   10 1
    13    6   11 1
    14    7    8 1
    15    7   17 1
    16    7   18 1
    17    8   12 1
    18    8   13 1
    19    8   19 1
    20    9   14 1
    21    9   20 1
    22    9   21 1
    23   12   22 1
    24   12   23 1
    25   12   24 1
    26   13   25 1
    27   13   26 1
    28   13   27 1
    29   14   16 2
    30   14   30 1
    31   16   31 1
    32   16   32 1
