@<TRIPOS>MOLECULE
DB00381
   53    54     0     0     0
SMALL
USER_CHARGES

@<TRIPOS>ATOM
      1 Cl1         3.2754    2.6729    1.4047 Cl        1 <0>        -0.0832
      2 O1         -2.5688   -1.2723   -0.1182 O.3       1 <0>        -0.3727
      3 O2         -1.4951    1.3158    1.0287 O.3       1 <0>        -0.4616
      4 O3          4.4562   -0.7556    1.0903 O.3       1 <0>        -0.4646
      5 O4          0.0065    1.3745    2.7897 O.2       1 <0>        -0.2452
      6 O5          4.4642   -1.2422   -1.1730 O.2       1 <0>        -0.2452
      7 N1          0.3904   -2.3154    0.0701 N.pl3     1 <0>        -0.3187
      8 N2         -6.1564   -1.4218   -0.9302 N.3       1 <0>        -0.3279
      9 C1          1.7465    0.1142    0.6043 C.3       1 <0>         0.0521
     10 C2          0.2817   -0.1342    0.9826 C.2       1 <0>         0.0677
     11 C3          2.4426   -1.1371    0.0599 C.2       1 <0>         0.0652
     12 C4         -0.3271   -1.3070    0.6940 C.2       1 <0>         0.0448
     13 C5          1.7473   -2.2660   -0.2056 C.2       1 <0>         0.0157
     14 C6          1.8338    1.2270   -0.4006 C.ar      1 <0>        -0.0168
     15 C7         -1.7658   -1.6380    0.9863 C.3       1 <0>         0.0861
     16 C8         -0.3974    0.9385    1.7275 C.2       1 <0>         0.3376
     17 C9          2.3226   -3.5285   -0.7885 C.3       1 <0>        -0.0260
     18 C10         3.9026   -1.0578   -0.1090 C.2       1 <0>         0.3373
     19 C11         2.5061    2.4164   -0.1189 C.ar      1 <0>         0.0450
     20 C12         1.2217    1.0488   -1.6411 C.ar      1 <0>        -0.0563
     21 C13         2.5661    3.4274   -1.0782 C.ar      1 <0>        -0.0431
     22 C14         1.2818    2.0599   -2.6003 C.ar      1 <0>        -0.0614
     23 C15         1.9538    3.2492   -2.3187 C.ar      1 <0>        -0.0604
     24 C16        -3.9439   -1.5653    0.1072 C.3       1 <0>         0.0604
     25 C17        -2.2672    2.3607    1.6293 C.3       1 <0>         0.0900
     26 C18        -4.7430   -1.1253   -1.1091 C.3       1 <0>         0.0167
     27 C19         5.8829   -0.6422    1.0888 C.3       1 <0>         0.0820
     28 C20        -3.4522    2.6717    0.7400 C.3       1 <0>        -0.0306
     29 H1          2.2438    0.3512    1.5502 H         1 <0>         0.0452
     30 H2         -0.1000   -3.1749   -0.1505 H         1 <0>         0.1516
     31 H3         -1.8726   -2.7122    1.1861 H         1 <0>         0.0623
     32 H4         -2.1108   -1.1191    1.8888 H         1 <0>         0.0623
     33 H5          1.9358   -3.6847   -1.8011 H         1 <0>         0.0290
     34 H6          3.4139   -3.5269   -0.8407 H         1 <0>         0.0290
     35 H7          2.0374   -4.3913   -0.1760 H         1 <0>         0.0290
     36 H8          0.6899    0.1351   -1.8912 H         1 <0>         0.0621
     37 H9          3.0861    4.3600   -0.8745 H         1 <0>         0.0632
     38 H10         0.8048    1.9215   -3.5662 H         1 <0>         0.0618
     39 H11         2.0003    4.0363   -3.0655 H         1 <0>         0.0618
     40 H12        -4.2885   -1.0311    1.0011 H         1 <0>         0.0572
     41 H13        -4.0633   -2.6430    0.2716 H         1 <0>         0.0572
     42 H14        -1.6443    3.2553    1.7422 H         1 <0>         0.0695
     43 H15        -2.6189    2.0351    2.6147 H         1 <0>         0.0695
     44 H16        -4.3684   -1.6348   -2.0040 H         1 <0>         0.0444
     45 H17        -4.6019   -0.0522   -1.2818 H         1 <0>         0.0444
     46 H18         6.3384   -1.5918    0.7920 H         1 <0>         0.0661
     47 H19         6.1975    0.1640    0.4193 H         1 <0>         0.0661
     48 H20         6.2054   -0.4001    2.1049 H         1 <0>         0.0661
     49 H21        -3.1171    2.9704   -0.2586 H         1 <0>         0.0262
     50 H22        -4.0802    1.7840    0.6122 H         1 <0>         0.0262
     51 H23        -4.0600    3.4753    1.1650 H         1 <0>         0.0262
     52 H24        -6.5130   -0.9206   -0.1176 H         1 <0>         0.1183
     53 H25        -6.6797   -1.0738   -1.7324 H         1 <0>         0.1183
@<TRIPOS>BOND
     1    1   19 1
     2    2   15 1
     3    2   24 1
     4    3   16 1
     5    3   25 1
     6    4   18 1
     7    4   27 1
     8    5   16 2
     9    6   18 2
    10    7   12 1
    11    7   13 1
    12    7   30 1
    13    8   26 1
    14    8   52 1
    15    8   53 1
    16    9   10 1
    17    9   11 1
    18    9   14 1
    19    9   29 1
    20   10   12 2
    21   10   16 1
    22   11   13 2
    23   11   18 1
    24   12   15 1
    25   13   17 1
    26   14   19 ar
    27   14   20 ar
    28   15   31 1
    29   15   32 1
    30   17   33 1
    31   17   34 1
    32   17   35 1
    33   19   21 ar
    34   20   22 ar
    35   20   36 1
    36   21   23 ar
    37   21   37 1
    38   22   23 ar
    39   22   38 1
    40   23   39 1
    41   24   26 1
    42   24   40 1
    43   24   41 1
    44   25   28 1
    45   25   42 1
    46   25   43 1
    47   26   44 1
    48   26   45 1
    49   27   46 1
    50   27   47 1
    51   27   48 1
    52   28   49 1
    53   28   50 1
    54   28   51 1
