@<TRIPOS>MOLECULE
DB00141
   30    29     0     0     0
SMALL
USER_CHARGES

@<TRIPOS>ATOM
      1 O1          0.2289   -1.9870    1.5690 O.3       1 <0>        -0.3869
      2 O2         -1.9238   -0.4300    2.0401 O.3       1 <0>        -0.3865
      3 O3         -2.4012    1.9750    0.7191 O.3       1 <0>        -0.3869
      4 O4         -3.4044    1.0373   -1.6589 O.3       1 <0>        -0.3924
      5 O5          0.9813   -3.0971   -1.5711 O.2       1 <0>        -0.2990
      6 O6          2.6563    0.8448   -1.9313 O.2       1 <0>        -0.2761
      7 N1          1.8816   -0.0799    0.0602 N.am      1 <0>        -0.3036
      8 C1         -0.2902   -1.2190    0.4740 C.3       1 <0>         0.1083
      9 C2         -0.9825    0.0285    1.0600 C.3       1 <0>         0.1111
     10 C3          0.8608   -0.9304   -0.4986 C.3       1 <0>         0.1067
     11 C4         -1.7123    0.9220    0.0430 C.3       1 <0>         0.1065
     12 C5         -2.7494    0.1427   -0.7649 C.3       1 <0>         0.0727
     13 C6          1.5496   -2.2072   -0.9429 C.2       1 <0>         0.1430
     14 C7          2.6951    0.7383   -0.7083 C.2       1 <0>         0.2105
     15 C8          3.6570    1.5387    0.1284 C.3       1 <0>         0.0122
     16 H1         -1.0245   -1.8763   -0.0047 H         1 <0>         0.0643
     17 H2         -0.2606    0.6311    1.6239 H         1 <0>         0.0646
     18 H3          0.4760   -0.4474   -1.4044 H         1 <0>         0.0601
     19 H4         -0.9907    1.3948   -0.6325 H         1 <0>         0.0643
     20 H5         -3.5173   -0.2890   -0.1149 H         1 <0>         0.0584
     21 H6         -2.2904   -0.6480   -1.3637 H         1 <0>         0.0584
     22 H7          2.0457   -0.1303    1.0618 H         1 <0>         0.1495
     23 H8          2.6069   -2.3304   -0.6491 H         1 <0>         0.1047
     24 H9         -0.5132   -2.1791    2.1674 H         1 <0>         0.2100
     25 H10        -2.3591    0.3552    2.4141 H         1 <0>         0.2100
     26 H11        -2.8441    2.5158    0.0430 H         1 <0>         0.2100
     27 H12        -4.0590    0.5163   -2.1547 H         1 <0>         0.2095
     28 H13         4.3541    2.0748   -0.5214 H         1 <0>         0.0322
     29 H14         3.1026    2.2613    0.7336 H         1 <0>         0.0322
     30 H15         4.2269    0.8742    0.7840 H         1 <0>         0.0322
@<TRIPOS>BOND
     1    1    8 1
     2    1   24 1
     3    2    9 1
     4    2   25 1
     5    3   11 1
     6    3   26 1
     7    4   12 1
     8    4   27 1
     9    5   13 2
    10    6   14 2
    11    7   10 1
    12    7   14 am
    13    7   22 1
    14    8    9 1
    15    8   10 1
    16    8   16 1
    17    9   11 1
    18    9   17 1
    19   10   13 1
    20   10   18 1
    21   11   12 1
    22   11   19 1
    23   12   20 1
    24   12   21 1
    25   13   23 1
    26   14   15 1
    27   15   28 1
    28   15   29 1
    29   15   30 1
