@<TRIPOS>MOLECULE
DB00760
   51    53     0     0     0
SMALL
USER_CHARGES

@<TRIPOS>ATOM
      1 S1         -0.7784    0.0895    0.8240 S.3       1 <0>        -0.1184
      2 O1          4.2536    2.6193    0.6625 O.2       1 <0>        -0.2748
      3 O2          5.8746   -1.4643   -0.8330 O.3       1 <0>        -0.3912
      4 O3          0.5521    3.1566    1.2458 O.co2     1 <0>        -0.5433
      5 O4          0.8404    3.4398   -1.0059 O.co2     1 <0>        -0.5433
      6 O5         -3.9467    1.9865   -0.1474 O.2       1 <0>        -0.2694
      7 N1          2.7481    1.1697   -0.4288 N.am      1 <0>        -0.2642
      8 N2         -2.5792    0.5350   -1.8734 N.4       1 <0>         0.2366
      9 N3         -5.3886    0.3212    0.5943 N.am      1 <0>        -0.3030
     10 C1          3.0472   -0.2746   -0.4599 C.3       1 <0>         0.0517
     11 C2          4.3972    0.1029    0.2299 C.3       1 <0>         0.0811
     12 C3          1.7952   -0.9218    0.1652 C.3       1 <0>         0.0089
     13 C4          3.8844    1.5600    0.2081 C.2       1 <0>         0.2275
     14 C5          0.8501    0.2590    0.3017 C.2       1 <0>         0.0136
     15 C6          1.4666    1.4039   -0.0196 C.2       1 <0>         0.0687
     16 C7          5.7337   -0.0982   -0.4388 C.3       1 <0>         0.0653
     17 C8         -1.4249   -1.0006   -0.4912 C.3       1 <0>         0.0551
     18 C9         -2.9183   -1.2727   -0.3183 C.3       1 <0>         0.0160
     19 C10         2.0598   -1.6667    1.4634 C.3       1 <0>        -0.0561
     20 C11        -3.6457   -0.1583   -1.0703 C.3       1 <0>         0.0563
     21 C12        -1.3534   -0.3252   -1.8480 C.3       1 <0>        -0.0203
     22 C13         6.9000    0.2710    0.4735 C.3       1 <0>        -0.0382
     23 C14         0.8964    2.8056    0.0837 C.2       1 <0>         0.0867
     24 C15        -4.3328    0.8149   -0.1728 C.2       1 <0>         0.2633
     25 C16        -6.1451    1.1630    1.5124 C.3       1 <0>         0.0030
     26 C17        -5.8129   -1.0752    0.5330 C.3       1 <0>         0.0030
     27 H1          3.1845   -0.6136   -1.4970 H         1 <0>         0.0519
     28 H2          4.4375   -0.2821    1.2590 H         1 <0>         0.0438
     29 H3          1.3884   -1.6328   -0.5643 H         1 <0>         0.0370
     30 H4          5.7964    0.4941   -1.3584 H         1 <0>         0.0598
     31 H5         -0.8651   -1.9402   -0.4727 H         1 <0>         0.0470
     32 H6         -3.1889   -1.3764    0.7367 H         1 <0>         0.0338
     33 H7         -3.1561   -2.2295   -0.8024 H         1 <0>         0.0338
     34 H8          2.3842   -0.9885    2.2602 H         1 <0>         0.0236
     35 H9          2.8474   -2.4147    1.3230 H         1 <0>         0.0236
     36 H10         1.1619   -2.1868    1.8128 H         1 <0>         0.0236
     37 H11        -4.3521   -0.5535   -1.8077 H         1 <0>         0.0950
     38 H12        -0.4847    0.3016   -2.0587 H         1 <0>         0.0825
     39 H13        -1.4764   -1.0532   -2.6577 H         1 <0>         0.0825
     40 H14        -2.3532    1.4503   -1.4595 H         1 <0>         0.2022
     41 H15        -2.8888    0.7195   -2.8375 H         1 <0>         0.2022
     42 H16         6.8993   -0.3442    1.3803 H         1 <0>         0.0255
     43 H17         6.8553    1.3223    0.7729 H         1 <0>         0.0255
     44 H18         7.8539    0.0885   -0.0326 H         1 <0>         0.0255
     45 H19         5.8381   -2.0101   -0.0287 H         1 <0>         0.2098
     46 H20        -7.1876    1.1989    1.1836 H         1 <0>         0.0428
     47 H21        -5.7433    2.1791    1.5346 H         1 <0>         0.0428
     48 H22        -6.0873    0.7323    2.5162 H         1 <0>         0.0428
     49 H23        -5.4227   -1.5951    1.4128 H         1 <0>         0.0428
     50 H24        -5.5067   -1.5968   -0.3722 H         1 <0>         0.0428
     51 H25        -6.9071   -1.1095    0.5668 H         1 <0>         0.0428
@<TRIPOS>BOND
     1    1   14 1
     2    1   17 1
     3    2   13 2
     4    3   16 1
     5    3   45 1
     6    4   23 2
     7    5   23 1
     8    6   24 2
     9    7   10 1
    10    7   13 am
    11    7   15 1
    12    8   20 1
    13    8   21 1
    14    8   40 1
    15    8   41 1
    16    9   24 am
    17    9   25 1
    18    9   26 1
    19   10   11 1
    20   10   12 1
    21   10   27 1
    22   11   13 1
    23   11   16 1
    24   11   28 1
    25   12   14 1
    26   12   19 1
    27   12   29 1
    28   14   15 2
    29   15   23 1
    30   16   22 1
    31   16   30 1
    32   17   18 1
    33   17   21 1
    34   17   31 1
    35   18   20 1
    36   18   32 1
    37   18   33 1
    38   19   34 1
    39   19   35 1
    40   19   36 1
    41   20   24 1
    42   20   37 1
    43   21   38 1
    44   21   39 1
    45   22   42 1
    46   22   43 1
    47   22   44 1
    48   25   46 1
    49   25   47 1
    50   25   48 1
    51   26   49 1
    52   26   50 1
    53   26   51 1
