@<TRIPOS>MOLECULE
DB00907
   43    45     0     0     0
SMALL
USER_CHARGES

@<TRIPOS>ATOM
      1 O1         -1.1722   -0.2199    0.4330 O.3       1 <0>        -0.4569
      2 O2          1.4864    2.8615    0.2950 O.3       1 <0>        -0.4676
      3 O3         -0.2047    1.7725   -0.8413 O.2       1 <0>        -0.2504
      4 O4         -1.8024   -2.4220    0.2031 O.2       1 <0>        -0.2450
      5 N1          2.7225   -0.1918   -0.7905 N.3       1 <0>        -0.2984
      6 C1          2.5871    0.2926    0.5994 C.3       1 <0>         0.0268
      7 C2          2.1849   -1.5617   -0.7142 C.3       1 <0>         0.0138
      8 C3          1.0898    0.6145    0.8349 C.3       1 <0>         0.1087
      9 C4          3.0464   -0.8965    1.4533 C.3       1 <0>        -0.0350
     10 C5          2.7709   -2.1272    0.5843 C.3       1 <0>        -0.0358
     11 C6          0.6507   -1.4228   -0.6455 C.3       1 <0>         0.0008
     12 C7          0.1890   -0.6081    0.5733 C.3       1 <0>         0.1191
     13 C8          4.0990   -0.1471   -1.2772 C.3       1 <0>        -0.0122
     14 C9          0.6945    1.7949   -0.0117 C.2       1 <0>         0.3150
     15 C10        -2.0665   -1.2307    0.2532 C.2       1 <0>         0.3395
     16 C11         1.2174    4.0589   -0.4412 C.3       1 <0>         0.0817
     17 C12        -3.4450   -0.6958    0.1194 C.ar      1 <0>         0.0590
     18 C13        -4.3567   -1.3873   -0.6518 C.ar      1 <0>        -0.0478
     19 C14        -3.7720    0.4759    0.7708 C.ar      1 <0>        -0.0478
     20 C15        -5.6519   -0.8851   -0.7774 C.ar      1 <0>        -0.0610
     21 C16        -5.0673    0.9781    0.6453 C.ar      1 <0>        -0.0610
     22 C17        -6.0072    0.2975   -0.1289 C.ar      1 <0>        -0.0617
     23 H1          3.2066    1.1753    0.7947 H         1 <0>         0.0472
     24 H2          2.4498   -2.1710   -1.5858 H         1 <0>         0.0464
     25 H3          0.9280    0.9276    1.8758 H         1 <0>         0.0466
     26 H4          2.5287   -0.9527    2.4164 H         1 <0>         0.0281
     27 H5          4.1209   -0.8307    1.6623 H         1 <0>         0.0281
     28 H6          3.7132   -2.6521    0.3870 H         1 <0>         0.0281
     29 H7          2.0986   -2.8349    1.0801 H         1 <0>         0.0281
     30 H8          0.2763   -0.9623   -1.5697 H         1 <0>         0.0316
     31 H9          0.2483   -2.4394   -0.6331 H         1 <0>         0.0316
     32 H10         0.2499   -1.2498    1.4632 H         1 <0>         0.0743
     33 H11         4.1452   -0.5226   -2.3053 H         1 <0>         0.0391
     34 H12         4.8035   -0.7279   -0.6733 H         1 <0>         0.0391
     35 H13         4.4524    0.8896   -1.3060 H         1 <0>         0.0391
     36 H14         0.1949    4.3990   -0.2510 H         1 <0>         0.0661
     37 H15         1.3762    3.8890   -1.5105 H         1 <0>         0.0661
     38 H16         1.9130    4.8306   -0.1012 H         1 <0>         0.0661
     39 H17        -4.0909   -2.3072   -1.1642 H         1 <0>         0.0626
     40 H18        -3.0627    1.0176    1.3895 H         1 <0>         0.0626
     41 H19        -6.3836   -1.4145   -1.3807 H         1 <0>         0.0618
     42 H20        -5.3453    1.8974    1.1524 H         1 <0>         0.0618
     43 H21        -7.0159    0.6883   -0.2262 H         1 <0>         0.0618
@<TRIPOS>BOND
     1    1   12 1
     2    1   15 1
     3    2   14 1
     4    2   16 1
     5    3   14 2
     6    4   15 2
     7    5    6 1
     8    5    7 1
     9    5   13 1
    10    6    8 1
    11    6    9 1
    12    6   23 1
    13    7   10 1
    14    7   11 1
    15    7   24 1
    16    8   12 1
    17    8   14 1
    18    8   25 1
    19    9   10 1
    20    9   26 1
    21    9   27 1
    22   10   28 1
    23   10   29 1
    24   11   12 1
    25   11   30 1
    26   11   31 1
    27   12   32 1
    28   13   33 1
    29   13   34 1
    30   13   35 1
    31   15   17 1
    32   16   36 1
    33   16   37 1
    34   16   38 1
    35   17   18 ar
    36   17   19 ar
    37   18   20 ar
    38   18   39 1
    39   19   21 ar
    40   19   40 1
    41   20   22 ar
    42   20   41 1
    43   21   22 ar
    44   21   42 1
    45   22   43 1
