@<TRIPOS>MOLECULE
DB00535
   39    41     0     0     0
SMALL
USER_CHARGES

@<TRIPOS>ATOM
      1 S1         -1.3155    0.7464   -1.8696 S.3       1 <0>        -0.1308
      2 S2          3.6415   -2.7468    0.8481 S.3       1 <0>        -0.0604
      3 O1         -0.5422    1.2084    2.6922 O.2       1 <0>        -0.2731
      4 O2         -2.4232   -1.6017    2.3123 O.3       1 <0>        -0.4762
      5 O3         -4.0351   -0.0555    2.8028 O.2       1 <0>        -0.2437
      6 O4          2.3559    2.1832    1.7456 O.2       1 <0>        -0.2683
      7 O5          3.7340    3.1220   -0.8698 O.3       1 <0>        -0.4086
      8 N1         -1.8230    0.9448    0.7286 N.am      1 <0>        -0.2487
      9 N2          1.0410    1.6428   -0.1225 N.am      1 <0>        -0.2963
     10 N3          4.1572    1.7915   -0.8084 N.2       1 <0>        -0.0801
     11 N4          4.7851   -0.8732   -0.5174 N.2       1 <0>        -0.2233
     12 N5          5.8145   -2.9968   -0.6643 N.pl3     1 <0>        -0.3375
     13 C1         -1.5243    1.7925   -0.4116 C.3       1 <0>         0.1043
     14 C2         -0.2347    2.1865    0.3403 C.3       1 <0>         0.1286
     15 C3         -0.8447    1.4055    1.5387 C.2       1 <0>         0.2440
     16 C4         -2.8359    0.0383    0.7526 C.2       1 <0>         0.1259
     17 C5         -3.0214    0.0990   -1.7825 C.3       1 <0>         0.0226
     18 C6         -3.4527   -0.3539   -0.3888 C.2       1 <0>        -0.0096
     19 C7         -3.1867   -0.5191    2.0701 C.2       1 <0>         0.3517
     20 C8          2.1985    1.7022    0.6350 C.2       1 <0>         0.2684
     21 C9         -4.5818   -1.2639   -0.4416 C.2       1 <0>        -0.0629
     22 C10         3.3844    1.0736   -0.0503 C.2       1 <0>         0.1896
     23 C11        -5.1645   -1.6291   -1.5770 C.2       1 <0>        -0.0983
     24 C12         3.6995   -0.3483    0.1243 C.2       1 <0>         0.1067
     25 C13         2.9518   -1.1775    0.9045 C.2       1 <0>         0.0067
     26 C14         4.8559   -2.1486   -0.2065 C.2       1 <0>         0.1562
     27 H1         -2.2385    2.6161   -0.5297 H         1 <0>         0.0644
     28 H2         -0.1611    3.2642    0.5288 H         1 <0>         0.0622
     29 H3          1.0967    1.2012   -1.0374 H         1 <0>         0.1499
     30 H4         -2.9712   -0.7365   -2.4863 H         1 <0>         0.0426
     31 H5         -3.7076    0.8600   -2.1706 H         1 <0>         0.0426
     32 H6         -4.9576   -1.6805    0.4881 H         1 <0>         0.0615
     33 H7         -5.9980   -2.3260   -1.5283 H         1 <0>         0.0535
     34 H8         -4.9229   -1.2874   -2.5741 H         1 <0>         0.0535
     35 H9         -2.6234   -2.0080    3.1825 H         1 <0>         0.2954
     36 H10         2.0668   -0.9769    1.4918 H         1 <0>         0.0716
     37 H11         4.4004    3.5116   -1.4606 H         1 <0>         0.3278
     38 H12         6.5501   -2.6843   -1.2894 H         1 <0>         0.1442
     39 H13         5.8324   -3.9761   -0.3994 H         1 <0>         0.1442
@<TRIPOS>BOND
     1    1   13 1
     2    1   17 1
     3    2   25 1
     4    2   26 1
     5    3   15 2
     6    4   19 1
     7    4   35 1
     8    5   19 2
     9    6   20 2
    10    7   10 1
    11    7   37 1
    12    8   13 1
    13    8   15 am
    14    8   16 1
    15    9   14 1
    16    9   20 am
    17    9   29 1
    18   10   22 2
    19   11   24 1
    20   11   26 2
    21   12   26 1
    22   12   38 1
    23   12   39 1
    24   13   14 1
    25   13   27 1
    26   14   15 1
    27   14   28 1
    28   16   18 2
    29   16   19 1
    30   17   18 1
    31   17   30 1
    32   17   31 1
    33   18   21 1
    34   20   22 1
    35   21   23 2
    36   21   32 1
    37   22   24 1
    38   23   33 1
    39   23   34 1
    40   24   25 2
    41   25   36 1
