@<TRIPOS>MOLECULE
DB00805
   44    46     0     0     0
SMALL
USER_CHARGES

@<TRIPOS>ATOM
      1 O1         -6.4708   -1.4874   -0.3878 O.3       1 <0>        -0.3772
      2 N1         -4.1055   -0.1072    0.3883 N.3       1 <0>        -0.2965
      3 N2         -0.5927    1.0773    0.0175 N.pl3     1 <0>        -0.3262
      4 N3          1.0779   -0.5858    0.2990 N.ar      1 <0>        -0.1336
      5 N4          2.3835   -0.9663    0.3162 N.ar      1 <0>        -0.1475
      6 C1         -4.0727   -1.1894   -0.6054 C.3       1 <0>         0.0225
      7 C2         -5.4125    0.5640    0.3587 C.3       1 <0>         0.0225
      8 C3         -3.0259    0.8486    0.1504 C.3       1 <0>         0.0146
      9 C4         -5.2153   -2.1668   -0.3449 C.3       1 <0>         0.0604
     10 C5         -6.5230   -0.4551    0.5974 C.3       1 <0>         0.0604
     11 C6         -1.6813    0.1442    0.2789 C.3       1 <0>         0.0232
     12 C7          0.7359    0.7108    0.0304 C.ar      1 <0>         0.1442
     13 C8          1.7273    1.6618   -0.2300 C.ar      1 <0>        -0.0069
     14 C9          3.0557    1.2749   -0.2124 C.ar      1 <0>        -0.0277
     15 C10         3.3399   -0.0473    0.0648 C.ar      1 <0>         0.0937
     16 C11         1.3764    3.0804   -0.5249 C.3       1 <0>        -0.0363
     17 C12         4.6951   -0.5381    0.1036 C.ar      1 <0>         0.0021
     18 C13         5.7389    0.3102    0.4822 C.ar      1 <0>        -0.0525
     19 C14         4.9717   -1.8648   -0.2370 C.ar      1 <0>        -0.0525
     20 C15         7.0500   -0.1646    0.5201 C.ar      1 <0>        -0.0611
     21 C16         6.2827   -2.3397   -0.1991 C.ar      1 <0>        -0.0611
     22 C17         7.3218   -1.4896    0.1793 C.ar      1 <0>        -0.0617
     23 H1         -3.1614   -1.7888   -0.5479 H         1 <0>         0.0449
     24 H2         -4.1607   -0.7828   -1.6211 H         1 <0>         0.0449
     25 H3         -5.5678    1.0516   -0.6125 H         1 <0>         0.0449
     26 H4         -5.4632    1.3334    1.1375 H         1 <0>         0.0449
     27 H5         -3.1177    1.3179   -0.8384 H         1 <0>         0.0442
     28 H6         -3.0715    1.6566    0.8921 H         1 <0>         0.0442
     29 H7         -5.2299   -2.9395   -1.1203 H         1 <0>         0.0572
     30 H8         -5.1052   -2.6709    0.6232 H         1 <0>         0.0572
     31 H9         -6.4562   -0.8997    1.5979 H         1 <0>         0.0572
     32 H10        -7.4997    0.0326    0.5167 H         1 <0>         0.0572
     33 H11        -1.5705   -0.2794    1.2848 H         1 <0>         0.0474
     34 H12        -1.5671   -0.6623   -0.4489 H         1 <0>         0.0474
     35 H13        -0.8383    1.9372   -0.4601 H         1 <0>         0.1476
     36 H14         3.8297    2.0010   -0.4383 H         1 <0>         0.0643
     37 H15         0.7728    3.5080    0.2827 H         1 <0>         0.0279
     38 H16         2.2698    3.7076   -0.6203 H         1 <0>         0.0279
     39 H17         0.8266    3.1522   -1.4692 H         1 <0>         0.0279
     40 H18         5.5698    1.3416    0.7802 H         1 <0>         0.0624
     41 H19         4.1871   -2.5508   -0.5467 H         1 <0>         0.0624
     42 H20         7.8589    0.4952    0.8204 H         1 <0>         0.0618
     43 H21         6.4952   -3.3708   -0.4664 H         1 <0>         0.0618
     44 H22         8.3424   -1.8597    0.2095 H         1 <0>         0.0618
@<TRIPOS>BOND
     1    1    9 1
     2    1   10 1
     3    2    6 1
     4    2    7 1
     5    2    8 1
     6    3   11 1
     7    3   12 1
     8    3   35 1
     9    4    5 ar
    10    4   12 ar
    11    5   15 ar
    12    6    9 1
    13    6   23 1
    14    6   24 1
    15    7   10 1
    16    7   25 1
    17    7   26 1
    18    8   11 1
    19    8   27 1
    20    8   28 1
    21    9   29 1
    22    9   30 1
    23   10   31 1
    24   10   32 1
    25   11   33 1
    26   11   34 1
    27   12   13 ar
    28   13   14 ar
    29   13   16 1
    30   14   15 ar
    31   14   36 1
    32   15   17 1
    33   16   37 1
    34   16   38 1
    35   16   39 1
    36   17   18 ar
    37   17   19 ar
    38   18   20 ar
    39   18   40 1
    40   19   21 ar
    41   19   41 1
    42   20   22 ar
    43   20   42 1
    44   21   22 ar
    45   21   43 1
    46   22   44 1
