@<TRIPOS>MOLECULE
DB00551
   10     9     0     0     0
SMALL
USER_CHARGES

@<TRIPOS>ATOM
      1 O1          2.2117    0.4132   -0.1992 O.3       1 <0>        -0.2952
      2 O2         -0.0876    1.8243    0.0124 O.2       1 <0>        -0.2740
      3 N1          0.9664   -0.2274   -0.1461 N.am      1 <0>        -0.1977
      4 C1         -0.1230    0.5966   -0.0389 C.2       1 <0>         0.2323
      5 C2         -1.4259   -0.1541    0.0265 C.3       1 <0>         0.0141
      6 H1         -1.7845   -0.1564    1.0594 H         1 <0>         0.0323
      7 H2         -2.1596    0.3431   -0.6142 H         1 <0>         0.0323
      8 H3         -1.3143   -1.1875   -0.3139 H         1 <0>         0.0323
      9 H4          0.9656   -1.2403   -0.0999 H         1 <0>         0.1822
     10 H5          2.7513   -0.2115    0.3140 H         1 <0>         0.2414
@<TRIPOS>BOND
     1    1    3 1
     2    1   10 1
     3    2    4 2
     4    3    4 am
     5    3    9 1
     6    4    5 1
     7    5    6 1
     8    5    7 1
     9    5    8 1
