@<TRIPOS>MOLECULE
DB00331
   20    19     0     0     0
SMALL
USER_CHARGES

@<TRIPOS>ATOM
      1 N1         -1.2610   -0.2204   -0.2464 N.pl3     1 <0>        -0.2648
      2 N2          0.9677    0.1314   -1.1246 N.2       1 <0>        -0.0036
      3 N3         -0.4578    1.8766   -1.0761 N.2       1 <0>        -0.1263
      4 N4          3.1591   -0.2696   -0.4342 N.pl3     1 <0>        -0.2888
      5 N5          1.7438    0.6850    1.0830 N.pl3     1 <0>        -0.2888
      6 C1         -1.0063   -1.6314    0.0212 C.3       1 <0>         0.0559
      7 C2         -2.5427    0.3017    0.2159 C.3       1 <0>         0.0559
      8 C3         -0.2906    0.6124   -0.8141 C.2       1 <0>         0.4265
      9 C4          1.8862    0.1898   -0.1943 C.2       1 <0>         0.3873
     10 H1         -0.3786   -2.0769   -0.7577 H         1 <0>         0.0620
     11 H2         -1.9359   -2.2101    0.0458 H         1 <0>         0.0620
     12 H3         -0.5024   -1.7446    0.9860 H         1 <0>         0.0620
     13 H4         -3.1508   -0.4685    0.7021 H         1 <0>         0.0620
     14 H5         -3.1185    0.6950   -0.6282 H         1 <0>         0.0620
     15 H6         -2.3865    1.1028    0.9459 H         1 <0>         0.0620
     16 H7         -1.4028    2.1739   -0.8210 H         1 <0>         0.3063
     17 H8          3.8798   -0.2303    0.2782 H         1 <0>         0.2547
     18 H9          3.4131   -0.6633   -1.3336 H         1 <0>         0.2547
     19 H10         0.8633    1.0606    1.4174 H         1 <0>         0.2547
     20 H11         2.5210    0.6859    1.7347 H         1 <0>         0.2547
@<TRIPOS>BOND
     1    1    6 1
     2    1    7 1
     3    1    8 1
     4    2    8 1
     5    2    9 2
     6    3    8 2
     7    3   16 1
     8    4    9 1
     9    4   17 1
    10    4   18 1
    11    5    9 1
    12    5   19 1
    13    5   20 1
    14    6   10 1
    15    6   11 1
    16    6   12 1
    17    7   13 1
    18    7   14 1
    19    7   15 1
