@<TRIPOS>MOLECULE
DB00870
   30    31     0     0     0
SMALL
USER_CHARGES

@<TRIPOS>ATOM
      1 S1          4.9184    0.7643    0.9887 S.3       1 <0>        -0.0934
      2 O1         -5.1034   -0.4845    1.0348 O.3       1 <0>        -0.4802
      3 O2         -3.1980   -0.1064    2.2023 O.2       1 <0>        -0.2503
      4 O3          2.7607    2.6496    0.3614 O.2       1 <0>        -0.2861
      5 C1         -3.1275    0.0843   -0.2319 C.3       1 <0>         0.0784
      6 C2         -1.6844    0.4443   -0.1188 C.ar      1 <0>        -0.0339
      7 C3         -0.7783   -0.4681    0.4216 C.ar      1 <0>        -0.0571
      8 C4         -1.2409    1.6932   -0.5542 C.ar      1 <0>        -0.0571
      9 C5          1.0149    1.1167    0.0914 C.ar      1 <0>         0.0228
     10 C6         -3.3984   -1.1381   -1.1323 C.3       1 <0>        -0.0482
     11 C7          0.5713   -0.1320    0.5268 C.ar      1 <0>        -0.0506
     12 C8          0.1089    2.0293   -0.4491 C.ar      1 <0>        -0.0506
     13 C9         -3.7846   -0.1689    1.1295 C.2       1 <0>         0.3119
     14 C10         2.4220    1.4675    0.2012 C.2       1 <0>         0.1997
     15 C11         3.5101    0.4462    0.1281 C.2       1 <0>         0.0594
     16 C12         3.4807   -0.7024   -0.5546 C.2       1 <0>        -0.0438
     17 C13         4.7079   -1.4034   -0.3738 C.2       1 <0>        -0.0540
     18 C14         5.5797   -0.7179    0.4433 C.2       1 <0>        -0.0236
     19 H1         -3.6702    0.9375   -0.6618 H         1 <0>         0.0459
     20 H2         -1.1053   -1.4433    0.7727 H         1 <0>         0.0621
     21 H3         -1.9330    2.4154   -0.9790 H         1 <0>         0.0621
     22 H4         -2.9104   -1.0177   -2.1058 H         1 <0>         0.0241
     23 H5         -3.0259   -2.0639   -0.6794 H         1 <0>         0.0241
     24 H6         -4.4708   -1.2695   -1.3123 H         1 <0>         0.0241
     25 H7          1.2387   -0.8538    0.9883 H         1 <0>         0.0625
     26 H8          0.4361    3.0053   -0.7980 H         1 <0>         0.0625
     27 H9          2.6702   -1.0607   -1.1754 H         1 <0>         0.0630
     28 H10         4.9415   -2.3595   -0.8240 H         1 <0>         0.0623
     29 H11         6.5740   -1.0161    0.7449 H         1 <0>         0.0693
     30 H12        -5.5040   -0.6474    1.9154 H         1 <0>         0.2951
@<TRIPOS>BOND
     1    1   15 1
     2    1   18 1
     3    2   13 1
     4    2   30 1
     5    3   13 2
     6    4   14 2
     7    5    6 1
     8    5   10 1
     9    5   13 1
    10    5   19 1
    11    6    7 ar
    12    6    8 ar
    13    7   11 ar
    14    7   20 1
    15    8   12 ar
    16    8   21 1
    17    9   11 ar
    18    9   12 ar
    19    9   14 1
    20   10   22 1
    21   10   23 1
    22   10   24 1
    23   11   25 1
    24   12   26 1
    25   14   15 1
    26   15   16 2
    27   16   17 1
    28   16   27 1
    29   17   18 2
    30   17   28 1
    31   18   29 1
