@<TRIPOS>MOLECULE
DB00153
   73    75     0     0     0
SMALL
USER_CHARGES

@<TRIPOS>ATOM
      1 O1         -8.0163   -0.0162   -1.4087 O.3       1 <0>        -0.3915
      2 C1          0.1892    1.4403    0.0533 C.3       1 <0>        -0.0222
      3 C2          1.4712    0.7554   -0.4857 C.3       1 <0>        -0.0291
      4 C3         -0.8801    0.5924   -0.6798 C.3       1 <0>        -0.0139
      5 C4          1.1339   -0.7501   -0.4585 C.3       1 <0>        -0.0486
      6 C5         -0.4006   -0.8486   -0.4799 C.3       1 <0>        -0.0457
      7 C6          0.0527    2.9261   -0.3561 C.3       1 <0>        -0.0465
      8 C7          2.7709    1.0844    0.2346 C.3       1 <0>        -0.0224
      9 C8         -2.2793    1.0020   -0.3011 C.2       1 <0>        -0.0659
     10 C9          0.0980    1.3295    1.5976 C.3       1 <0>        -0.0587
     11 C10        -1.3616    3.3063   -0.8361 C.3       1 <0>        -0.0488
     12 C11        -2.4891    2.4980   -0.1805 C.3       1 <0>        -0.0312
     13 C12         3.0614    2.5860    0.1755 C.3       1 <0>        -0.0587
     14 C13         3.9179    0.3131   -0.3725 C.2       1 <0>        -0.0846
     15 C14        -3.2875    0.1433   -0.0898 C.2       1 <0>        -0.0620
     16 C15         4.6660   -0.5701    0.3066 C.2       1 <0>        -0.0846
     17 C16        -4.6218    0.5617    0.2608 C.2       1 <0>        -0.0583
     18 C17         5.8069   -1.3532   -0.3058 C.3       1 <0>        -0.0234
     19 C18        -5.6315   -0.2975    0.4724 C.2       1 <0>        -0.0423
     20 C19         7.1536   -1.0430    0.4080 C.3       1 <0>        -0.0407
     21 C20        -7.0299    0.1792    0.7962 C.3       1 <0>        -0.0013
     22 C21         5.4442   -2.8420   -0.2532 C.3       1 <0>        -0.0587
     23 C22        -5.4748   -1.7447    0.3671 C.2       1 <0>        -0.0511
     24 C23        -8.0994   -0.4980   -0.0689 C.3       1 <0>         0.0595
     25 C24        -6.5216   -2.4422   -0.4662 C.3       1 <0>        -0.0256
     26 C25        -7.9402   -2.0197   -0.0728 C.3       1 <0>        -0.0226
     27 C26         7.5155    0.4455    0.3407 C.3       1 <0>        -0.0621
     28 C27         8.3115   -1.8576   -0.1872 C.3       1 <0>        -0.0621
     29 C28        -4.4956   -2.4210    0.9883 C.2       1 <0>        -0.0952
     30 H1          1.5839    1.0332   -1.5463 H         1 <0>         0.0312
     31 H2         -0.7967    0.7904   -1.7614 H         1 <0>         0.0351
     32 H3          1.5163   -1.2455    0.4415 H         1 <0>         0.0268
     33 H4          1.5674   -1.2624   -1.3247 H         1 <0>         0.0268
     34 H5         -0.7455   -1.5052   -1.2859 H         1 <0>         0.0271
     35 H6         -0.7594   -1.2726    0.4654 H         1 <0>         0.0271
     36 H7          0.7418    3.1813   -1.1686 H         1 <0>         0.0271
     37 H8          0.3058    3.5833    0.4840 H         1 <0>         0.0271
     38 H9          2.6945    0.8034    1.2925 H         1 <0>         0.0343
     39 H10         0.8563    1.9447    2.0926 H         1 <0>         0.0235
     40 H11        -0.8690    1.6714    1.9774 H         1 <0>         0.0235
     41 H12         0.2346    0.3028    1.9515 H         1 <0>         0.0235
     42 H13        -1.4115    3.1596   -1.9236 H         1 <0>         0.0268
     43 H14        -1.5265    4.3775   -0.6694 H         1 <0>         0.0268
     44 H15        -3.4167    2.8081   -0.6752 H         1 <0>         0.0310
     45 H16        -2.5606    2.7786    0.8768 H         1 <0>         0.0310
     46 H17         2.9955    2.9783   -0.8448 H         1 <0>         0.0235
     47 H18         4.0811    2.7886    0.5268 H         1 <0>         0.0235
     48 H19         2.4061    3.1620    0.8306 H         1 <0>         0.0235
     49 H20         4.1337    0.4951   -1.4231 H         1 <0>         0.0572
     50 H21        -3.0726   -0.9005   -0.2724 H         1 <0>         0.0617
     51 H22         4.4521   -0.7536    1.3572 H         1 <0>         0.0572
     52 H23        -4.8336    1.6198    0.3713 H         1 <0>         0.0620
     53 H24         5.9073   -1.0772   -1.3645 H         1 <0>         0.0343
     54 H25         7.0668   -1.3158    1.4685 H         1 <0>         0.0301
     55 H26        -7.2316   -0.0372    1.8532 H         1 <0>         0.0338
     56 H27        -7.1031    1.2665    0.6682 H         1 <0>         0.0338
     57 H28         6.1416   -3.4423   -0.8455 H         1 <0>         0.0235
     58 H29         4.4439   -3.0191   -0.6659 H         1 <0>         0.0235
     59 H30         5.4551   -3.2209    0.7750 H         1 <0>         0.0235
     60 H31        -9.0950   -0.2340    0.3032 H         1 <0>         0.0596
     61 H32        -6.3430   -2.2178   -1.5254 H         1 <0>         0.0314
     62 H33        -6.4412   -3.5319   -0.3673 H         1 <0>         0.0314
     63 H34        -8.6483   -2.4679   -0.7797 H         1 <0>         0.0293
     64 H35        -8.1746   -2.4132    0.9243 H         1 <0>         0.0293
     65 H36         8.4844    0.6326    0.8165 H         1 <0>         0.0233
     66 H37         7.5772    0.7907   -0.6970 H         1 <0>         0.0233
     67 H38         6.7779    1.0632    0.8625 H         1 <0>         0.0233
     68 H39         8.3964   -1.6952   -1.2670 H         1 <0>         0.0233
     69 H40         9.2643   -1.5732    0.2729 H         1 <0>         0.0233
     70 H41         8.1805   -2.9289   -0.0083 H         1 <0>         0.0233
     71 H42        -4.4181   -3.4995    0.8902 H         1 <0>         0.0538
     72 H43        -3.7744   -1.9455    1.6451 H         1 <0>         0.0538
     73 H44        -7.1067   -0.1313   -1.7294 H         1 <0>         0.2098
@<TRIPOS>BOND
     1    1   24 1
     2    1   73 1
     3    2    3 1
     4    2    4 1
     5    2    7 1
     6    2   10 1
     7    3    5 1
     8    3    8 1
     9    3   30 1
    10    4    6 1
    11    4    9 1
    12    4   31 1
    13    5    6 1
    14    5   32 1
    15    5   33 1
    16    6   34 1
    17    6   35 1
    18    7   11 1
    19    7   36 1
    20    7   37 1
    21    8   13 1
    22    8   14 1
    23    8   38 1
    24    9   12 1
    25    9   15 2
    26   10   39 1
    27   10   40 1
    28   10   41 1
    29   11   12 1
    30   11   42 1
    31   11   43 1
    32   12   44 1
    33   12   45 1
    34   13   46 1
    35   13   47 1
    36   13   48 1
    37   14   16 2
    38   14   49 1
    39   15   17 1
    40   15   50 1
    41   16   18 1
    42   16   51 1
    43   17   19 2
    44   17   52 1
    45   18   20 1
    46   18   22 1
    47   18   53 1
    48   19   21 1
    49   19   23 1
    50   20   27 1
    51   20   28 1
    52   20   54 1
    53   21   24 1
    54   21   55 1
    55   21   56 1
    56   22   57 1
    57   22   58 1
    58   22   59 1
    59   23   25 1
    60   23   29 2
    61   24   26 1
    62   24   60 1
    63   25   26 1
    64   25   61 1
    65   25   62 1
    66   26   63 1
    67   26   64 1
    68   27   65 1
    69   27   66 1
    70   27   67 1
    71   28   68 1
    72   28   69 1
    73   28   70 1
    74   29   71 1
    75   29   72 1
