@<TRIPOS>MOLECULE
DB00853
   20    21     0     0     0
SMALL
USER_CHARGES

@<TRIPOS>ATOM
      1 O1          2.2295    1.9444    0.0031 O.2       1 <0>        -0.2443
      2 O2         -2.7507   -2.1150    0.0125 O.2       1 <0>        -0.2686
      3 N1          0.2985    0.7937    0.0010 N.am      1 <0>        -0.2319
      4 N2          2.2230   -0.4207   -0.0004 N.am      1 <0>        -0.1987
      5 N3         -1.8491    1.3729    0.0005 N.2       1 <0>        -0.2283
      6 N4          0.2380   -1.5569   -0.0017 N.2       1 <0>        -0.1102
      7 N5          1.4907   -1.5908   -0.0019 N.2       1 <0>        -0.0597
      8 N6         -4.1464   -0.2954   -0.0033 N.am      1 <0>        -0.3240
      9 C1         -0.4062   -0.3750   -0.0007 C.2       1 <0>         0.1971
     10 C2         -1.7288    0.0069   -0.0012 C.2       1 <0>         0.1713
     11 C3          1.6783    0.8551    0.0014 C.2       1 <0>         0.3532
     12 C4         -0.6119    1.8186    0.0019 C.cat     1 <0>         0.1070
     13 C5          3.6705   -0.5336   -0.0011 C.3       1 <0>         0.0370
     14 C6         -2.8648   -0.8649   -0.0029 C.2       1 <0>         0.2636
     15 H1         -0.3192    2.8598    0.0033 H         1 <0>         0.1034
     16 H2          4.1598    0.4439   -0.0000 H         1 <0>         0.0475
     17 H3          3.9760   -1.0858   -0.8946 H         1 <0>         0.0475
     18 H4          3.9766   -1.0881    0.8908 H         1 <0>         0.0475
     19 H5         -4.2875    0.7098   -0.0081 H         1 <0>         0.1453
     20 H6         -4.9763   -0.8790    0.0016 H         1 <0>         0.1453
@<TRIPOS>BOND
     1    1   11 2
     2    2   14 2
     3    3    9 1
     4    3   11 am
     5    3   12 2
     6    4    7 2
     7    4   11 am
     8    4   13 1
     9    5   10 2
    10    5   12 1
    11    6    7 1
    12    6    9 2
    13    8   14 am
    14    8   19 1
    15    8   20 1
    16    9   10 1
    17   10   14 1
    18   12   15 1
    19   13   16 1
    20   13   17 1
    21   13   18 1
