@<TRIPOS>MOLECULE
DB00457
   49    52     0     0     0
SMALL
USER_CHARGES

@<TRIPOS>ATOM
      1 O1         -6.0041   -0.9253   -1.8009 O.2       1 <0>        -0.2666
      2 O2         -5.7668    0.4748    1.3806 O.3       1 <0>        -0.4583
      3 O3          5.2256    2.4141   -0.0194 O.3       1 <0>        -0.4914
      4 O4          6.4362   -0.0722    0.2530 O.3       1 <0>        -0.4914
      5 N1         -1.1802   -0.6868   -0.3941 N.pl3     1 <0>        -0.2966
      6 N2         -4.0572   -0.4469   -0.6487 N.am      1 <0>        -0.2920
      7 N3          0.9461    0.3400   -0.2690 N.ar      1 <0>        -0.2141
      8 N4          0.7259   -2.0556   -0.1319 N.ar      1 <0>        -0.1992
      9 N5          2.6230   -3.4228    0.1289 N.pl3     1 <0>        -0.3425
     10 C1         -1.8141    0.6266   -0.5373 C.3       1 <0>         0.0307
     11 C2         -2.0398   -1.8736   -0.4055 C.3       1 <0>         0.0307
     12 C3         -3.2477    0.5951   -0.0067 C.3       1 <0>         0.0309
     13 C4         -3.3277   -1.5971   -1.1779 C.3       1 <0>         0.0309
     14 C5          0.2008   -0.8061   -0.2615 C.ar      1 <0>         0.2201
     15 C6         -5.4492   -0.3697   -0.8504 C.2       1 <0>         0.2820
     16 C7          2.2805    0.2326   -0.1417 C.ar      1 <0>         0.0816
     17 C8         -6.2281    0.4089    0.1099 C.2       1 <0>         0.1892
     18 C9          2.9053   -1.0177   -0.0035 C.ar      1 <0>         0.0437
     19 C10         2.0645   -2.1273   -0.0065 C.ar      1 <0>         0.1291
     20 C11         3.0890    1.3666   -0.1433 C.ar      1 <0>         0.0099
     21 C12         4.3012   -1.1179    0.1289 C.ar      1 <0>        -0.0038
     22 C13        -7.3890    1.1178   -0.0358 C.2       1 <0>        -0.0113
     23 C14         4.4779    1.2753   -0.0120 C.ar      1 <0>         0.1635
     24 C15         5.0850    0.0318    0.1241 C.ar      1 <0>         0.1623
     25 C16        -7.6687    1.6641    1.2395 C.2       1 <0>        -0.0231
     26 C17        -6.6528    1.2442    2.0661 C.2       1 <0>         0.0928
     27 C18         5.6948    2.8730   -1.2856 C.3       1 <0>         0.0790
     28 C19         6.9664   -0.0390    1.5771 C.3       1 <0>         0.0790
     29 H1         -1.8067    0.9133   -1.5958 H         1 <0>         0.0480
     30 H2         -1.2717    1.3974    0.0224 H         1 <0>         0.0480
     31 H3         -2.2696   -2.1584    0.6282 H         1 <0>         0.0480
     32 H4         -1.5418   -2.7239   -0.8858 H         1 <0>         0.0480
     33 H5         -3.2345    0.3747    1.0673 H         1 <0>         0.0480
     34 H6         -3.7293    1.5684   -0.1484 H         1 <0>         0.0480
     35 H7         -3.1030   -1.3747   -2.2285 H         1 <0>         0.0480
     36 H8         -3.9813   -2.4767   -1.1631 H         1 <0>         0.0480
     37 H9          2.6307    2.3490   -0.2480 H         1 <0>         0.0677
     38 H10         4.8030   -2.0767    0.2274 H         1 <0>         0.0663
     39 H11        -7.9683    1.2337   -0.9406 H         1 <0>         0.0657
     40 H12         3.4190   -3.5434    0.7425 H         1 <0>         0.1437
     41 H13         1.9631   -4.1912    0.0916 H         1 <0>         0.1437
     42 H14        -8.5059    2.2864    1.5208 H         1 <0>         0.0649
     43 H15        -6.4270    1.3982    3.1112 H         1 <0>         0.1029
     44 H16         6.3396    2.1221   -1.7529 H         1 <0>         0.0660
     45 H17         6.2783    3.7837   -1.1252 H         1 <0>         0.0660
     46 H18         4.8527    3.1080   -1.9443 H         1 <0>         0.0660
     47 H19         6.5819   -0.8786    2.1649 H         1 <0>         0.0660
     48 H20         6.7195    0.9079    2.0673 H         1 <0>         0.0660
     49 H21         8.0544   -0.1263    1.5125 H         1 <0>         0.0660
@<TRIPOS>BOND
     1    1   15 2
     2    2   17 1
     3    2   26 1
     4    3   23 1
     5    3   27 1
     6    4   24 1
     7    4   28 1
     8    5   10 1
     9    5   11 1
    10    5   14 1
    11    6   12 1
    12    6   13 1
    13    6   15 am
    14    7   14 ar
    15    7   16 ar
    16    8   14 ar
    17    8   19 ar
    18    9   19 1
    19    9   40 1
    20    9   41 1
    21   10   12 1
    22   10   29 1
    23   10   30 1
    24   11   13 1
    25   11   31 1
    26   11   32 1
    27   12   33 1
    28   12   34 1
    29   13   35 1
    30   13   36 1
    31   15   17 1
    32   16   18 ar
    33   16   20 ar
    34   17   22 2
    35   18   19 ar
    36   18   21 ar
    37   20   23 ar
    38   20   37 1
    39   21   24 ar
    40   21   38 1
    41   22   25 1
    42   22   39 1
    43   23   24 ar
    44   25   26 2
    45   25   42 1
    46   26   43 1
    47   27   44 1
    48   27   45 1
    49   27   46 1
    50   28   47 1
    51   28   48 1
    52   28   49 1
