@<TRIPOS>MOLECULE
DB00718
   66    67     0     0     0
SMALL
USER_CHARGES

@<TRIPOS>ATOM
      1 P1         -0.4273    3.0262   -0.5170 P.3       1 <0>         0.3635
      2 O1         -0.2917    1.1974    1.2684 O.3       1 <0>        -0.3659
      3 O2         -3.8859    1.4495   -1.1403 O.3       1 <0>        -0.4369
      4 O3          3.2515    2.0605   -1.1223 O.3       1 <0>        -0.4369
      5 O4         -1.6143    2.1135   -1.1315 O.3       1 <0>        -0.2683
      6 O5          0.9009    2.3288   -1.1248 O.3       1 <0>        -0.2683
      7 O6         -3.5832    0.8239    1.0535 O.2       1 <0>        -0.2502
      8 O7          2.9832    1.3200    1.0402 O.2       1 <0>        -0.2502
      9 O8         -0.5521    4.4943   -0.8063 O.2       1 <0>        -0.2559
     10 N1          0.2821   -1.5876    1.8775 N.pl3     1 <0>        -0.3127
     11 N2          2.0471   -2.8809    1.4511 N.2       1 <0>        -0.2306
     12 N3         -0.7429   -1.5420   -0.3242 N.2       1 <0>        -0.2160
     13 N4          0.5429   -2.8576   -1.9279 N.2       1 <0>        -0.2188
     14 N5          2.5479   -4.0166   -1.3246 N.pl3     1 <0>        -0.3413
     15 C1         -5.1046   -0.4487   -0.3728 C.3       1 <0>         0.0595
     16 C2          4.7385    0.3607   -0.3622 C.3       1 <0>         0.0595
     17 C3         -4.5392   -1.3229   -1.5038 C.3       1 <0>        -0.0499
     18 C4         -5.3289   -1.3237    0.8677 C.3       1 <0>        -0.0499
     19 C5         -6.4285    0.1729   -0.8368 C.3       1 <0>        -0.0499
     20 C6          5.9668    1.1974   -0.7442 C.3       1 <0>        -0.0499
     21 C7          5.0783   -0.4867    0.8747 C.3       1 <0>        -0.0499
     22 C8          4.3463   -0.5727   -1.5149 C.3       1 <0>        -0.0499
     23 C9         -4.1080    0.6666   -0.0423 C.2       1 <0>         0.3145
     24 C10         3.5628    1.2879   -0.0386 C.2       1 <0>         0.3145
     25 C11        -0.6489   -0.7526    2.6334 C.3       1 <0>         0.0495
     26 C12        -0.2652    0.7209    2.6061 C.3       1 <0>         0.0664
     27 C13        -0.3952    2.6143    1.2189 C.3       1 <0>         0.1490
     28 C14         0.2002   -1.9147    0.5540 C.2       1 <0>         0.1654
     29 C15        -2.9608    2.5352   -0.9708 C.3       1 <0>         0.2023
     30 C16         2.1551    2.9736   -0.9582 C.3       1 <0>         0.2023
     31 C17         1.3032   -2.7172    0.3097 C.2       1 <0>         0.1472
     32 C18         1.4080   -2.1907    2.3724 C.cat     1 <0>         0.0984
     33 C19         1.4585   -3.1946   -0.9879 C.2       1 <0>         0.1472
     34 C20        -0.4857   -2.0640   -1.5433 C.2       1 <0>         0.1205
     35 H1         -5.2221   -2.1441   -1.7486 H         1 <0>         0.0240
     36 H2         -4.3713   -0.7469   -2.4207 H         1 <0>         0.0240
     37 H3         -3.5786   -1.7613   -1.2147 H         1 <0>         0.0240
     38 H4         -6.0339   -2.1360    0.6589 H         1 <0>         0.0240
     39 H5         -4.3909   -1.7740    1.2129 H         1 <0>         0.0240
     40 H6         -5.7349   -0.7350    1.6987 H         1 <0>         0.0240
     41 H7         -6.3069    0.7524   -1.7589 H         1 <0>         0.0240
     42 H8         -6.8283    0.8532   -0.0761 H         1 <0>         0.0240
     43 H9         -7.1825   -0.5987   -1.0277 H         1 <0>         0.0240
     44 H10         6.8398    0.5605   -0.9249 H         1 <0>         0.0240
     45 H11         6.2230    1.9060    0.0518 H         1 <0>         0.0240
     46 H12         5.7907    1.7821   -1.6541 H         1 <0>         0.0240
     47 H13         5.9167   -1.1636    0.6757 H         1 <0>         0.0240
     48 H14         5.3541    0.1463    1.7261 H         1 <0>         0.0240
     49 H15         4.2238   -1.0965    1.1856 H         1 <0>         0.0240
     50 H16         5.1213   -1.3238   -1.7024 H         1 <0>         0.0240
     51 H17         3.4112   -1.0934   -1.2932 H         1 <0>         0.0240
     52 H18         4.1911   -0.0175   -2.4470 H         1 <0>         0.0240
     53 H19        -1.6404   -0.9088    2.1944 H         1 <0>         0.0515
     54 H20        -0.6649   -1.1319    3.6608 H         1 <0>         0.0515
     55 H21         0.7404    0.8725    3.0141 H         1 <0>         0.0578
     56 H22        -0.9800    1.2758    3.2252 H         1 <0>         0.0578
     57 H23         0.4647    3.0743    1.7148 H         1 <0>         0.0687
     58 H24        -1.3183    2.9471    1.7034 H         1 <0>         0.0687
     59 H25        -3.1816    3.2719   -1.7490 H         1 <0>         0.1022
     60 H26        -3.1085    3.0223   -0.0003 H         1 <0>         0.1022
     61 H27         2.2151    3.4753    0.0144 H         1 <0>         0.1022
     62 H28         2.2513    3.7384   -1.7346 H         1 <0>         0.1022
     63 H29         1.7114   -2.0906    3.4056 H         1 <0>         0.1029
     64 H30        -1.1976   -1.8121   -2.3221 H         1 <0>         0.1048
     65 H31         2.6404   -4.3488   -2.2748 H         1 <0>         0.1438
     66 H32         3.2349   -4.2655   -0.6258 H         1 <0>         0.1438
@<TRIPOS>BOND
     1    1    5 1
     2    1    6 1
     3    1    9 2
     4    1   27 1
     5    2   26 1
     6    2   27 1
     7    3   23 1
     8    3   29 1
     9    4   24 1
    10    4   30 1
    11    5   29 1
    12    6   30 1
    13    7   23 2
    14    8   24 2
    15   10   25 1
    16   10   28 1
    17   10   32 2
    18   11   31 2
    19   11   32 1
    20   12   28 2
    21   12   34 1
    22   13   33 1
    23   13   34 2
    24   14   33 1
    25   14   65 1
    26   14   66 1
    27   15   17 1
    28   15   18 1
    29   15   19 1
    30   15   23 1
    31   16   20 1
    32   16   21 1
    33   16   22 1
    34   16   24 1
    35   17   35 1
    36   17   36 1
    37   17   37 1
    38   18   38 1
    39   18   39 1
    40   18   40 1
    41   19   41 1
    42   19   42 1
    43   19   43 1
    44   20   44 1
    45   20   45 1
    46   20   46 1
    47   21   47 1
    48   21   48 1
    49   21   49 1
    50   22   50 1
    51   22   51 1
    52   22   52 1
    53   25   26 1
    54   25   53 1
    55   25   54 1
    56   26   55 1
    57   26   56 1
    58   27   57 1
    59   27   58 1
    60   28   31 1
    61   29   59 1
    62   29   60 1
    63   30   61 1
    64   30   62 1
    65   31   33 2
    66   32   63 1
    67   34   64 1
