@<TRIPOS>MOLECULE
DB00775
   66    67     0     0     0
SMALL
USER_CHARGES

@<TRIPOS>ATOM
      1 S1          4.2609    0.5762   -0.9419 S.o2      1 <0>         0.0299
      2 O1         -0.8090   -3.1067    0.7838 O.3       1 <0>        -0.4920
      3 O2          3.3554    0.4261    0.1803 O.2       1 <0>        -0.1582
      4 O3          3.7810    1.0585   -2.2229 O.2       1 <0>        -0.1582
      5 O4          7.5166   -2.2650   -0.9630 O.co2     1 <0>        -0.5481
      6 O5          7.4396   -1.2047    1.0583 O.co2     1 <0>        -0.5481
      7 N1         -8.3979    1.6140   -0.5455 N.4       1 <0>         0.2270
      8 N2          5.1082   -0.8750   -1.2064 N.pl3     1 <0>        -0.1857
      9 C1         -5.7778    0.6075    0.1624 C.3       1 <0>        -0.0314
     10 C2         -6.6183    1.4408    1.1406 C.3       1 <0>        -0.0096
     11 C3         -6.6807   -0.1184   -0.8453 C.3       1 <0>        -0.0096
     12 C4         -7.5533    2.3919    0.4086 C.3       1 <0>        -0.0334
     13 C5         -7.6150    0.8472   -1.5592 C.3       1 <0>        -0.0334
     14 C6         -4.8972   -0.3872    0.9157 C.3       1 <0>        -0.0497
     15 C7         -3.7114   -0.8317    0.0644 C.3       1 <0>        -0.0497
     16 C8         -2.8158   -1.8011    0.8325 C.3       1 <0>        -0.0186
     17 C9         -1.6057   -2.2203    0.0100 C.3       1 <0>         0.0896
     18 C10         5.4035   -1.7544   -0.0450 C.3       1 <0>         0.0716
     19 C11         0.5375   -3.1122    0.5268 C.ar      1 <0>         0.1205
     20 C12         4.7429   -3.1218   -0.2737 C.3       1 <0>        -0.0054
     21 C13         5.5876    1.6460   -0.4352 C.3       1 <0>         0.0817
     22 C14         3.2779   -3.1201    0.0049 C.ar      1 <0>        -0.0453
     23 C15         5.0832    3.0479   -0.1295 C.3       1 <0>        -0.0324
     24 C16         1.4408   -3.4109    1.5470 C.ar      1 <0>        -0.0197
     25 C17         1.0044   -2.8173   -0.7541 C.ar      1 <0>        -0.0197
     26 C18         6.2272    3.9706    0.2863 C.3       1 <0>        -0.0544
     27 C19         2.8110   -3.4149    1.2859 C.ar      1 <0>        -0.0551
     28 C20         2.3745   -2.8212   -1.0150 C.ar      1 <0>        -0.0551
     29 C21         6.9366   -1.7381    0.0304 C.2       1 <0>         0.0606
     30 C22         5.7229    5.3631    0.6303 C.3       1 <0>        -0.0652
     31 H1         -5.1354    1.3071   -0.3903 H         1 <0>         0.0304
     32 H2         -5.9620    2.0207    1.8003 H         1 <0>         0.0319
     33 H3         -7.2069    0.7744    1.7845 H         1 <0>         0.0319
     34 H4         -7.2770   -0.8825   -0.3297 H         1 <0>         0.0319
     35 H5         -6.0794   -0.6404   -1.5971 H         1 <0>         0.0319
     36 H6         -8.2342    2.8967    1.1001 H         1 <0>         0.0814
     37 H7         -7.0074    3.1413   -0.1738 H         1 <0>         0.0814
     38 H8         -7.0698    1.5743   -2.1699 H         1 <0>         0.0814
     39 H9         -8.3375    0.3171   -2.1866 H         1 <0>         0.0814
     40 H10        -5.4824   -1.2559    1.2416 H         1 <0>         0.0268
     41 H11        -4.5059    0.0860    1.8256 H         1 <0>         0.0268
     42 H12        -9.0037    0.9684   -0.0197 H         1 <0>         0.2013
     43 H13        -9.0368    2.2585   -1.0313 H         1 <0>         0.2013
     44 H14        -4.0592   -1.3194   -0.8527 H         1 <0>         0.0266
     45 H15        -3.1248    0.0447   -0.2375 H         1 <0>         0.0266
     46 H16        -3.3838   -2.6928    1.1256 H         1 <0>         0.0298
     47 H17        -2.4741   -1.3421    1.7690 H         1 <0>         0.0298
     48 H18        -1.0529   -1.3110   -0.2604 H         1 <0>         0.0696
     49 H19        -1.9306   -2.7333   -0.9025 H         1 <0>         0.0696
     50 H20         5.0212   -1.3160    0.8846 H         1 <0>         0.0541
     51 H21         5.2304   -3.8680    0.3679 H         1 <0>         0.0332
     52 H22         4.9240   -3.4715   -1.2994 H         1 <0>         0.0332
     53 H23         6.3226    1.6647   -1.2461 H         1 <0>         0.0515
     54 H24         6.0436    1.2075    0.4571 H         1 <0>         0.0515
     55 H25         5.6318   -1.0319   -2.0759 H         1 <0>         0.1483
     56 H26         4.5781    3.4636   -1.0099 H         1 <0>         0.0281
     57 H27         4.3340    3.0060    0.6705 H         1 <0>         0.0281
     58 H28         1.0828   -3.6401    2.5469 H         1 <0>         0.0654
     59 H29         0.3344   -2.6063   -1.5822 H         1 <0>         0.0654
     60 H30         6.9612    4.0425   -0.5247 H         1 <0>         0.0263
     61 H31         6.7456    3.5524    1.1571 H         1 <0>         0.0263
     62 H32         3.5048   -3.6461    2.0899 H         1 <0>         0.0621
     63 H33         2.7243   -2.5961   -2.0191 H         1 <0>         0.0621
     64 H34         5.0120    5.3288    1.4620 H         1 <0>         0.0230
     65 H35         6.5581    6.0068    0.9237 H         1 <0>         0.0230
     66 H36         5.2249    5.8232   -0.2291 H         1 <0>         0.0230
@<TRIPOS>BOND
     1    1    3 2
     2    1    4 2
     3    1    8 1
     4    1   21 1
     5    2   17 1
     6    2   19 1
     7    5   29 2
     8    6   29 1
     9    7   12 1
    10    7   13 1
    11    7   42 1
    12    7   43 1
    13    8   18 1
    14    8   55 1
    15    9   10 1
    16    9   11 1
    17    9   14 1
    18    9   31 1
    19   10   12 1
    20   10   32 1
    21   10   33 1
    22   11   13 1
    23   11   34 1
    24   11   35 1
    25   12   36 1
    26   12   37 1
    27   13   38 1
    28   13   39 1
    29   14   15 1
    30   14   40 1
    31   14   41 1
    32   15   16 1
    33   15   44 1
    34   15   45 1
    35   16   17 1
    36   16   46 1
    37   16   47 1
    38   17   48 1
    39   17   49 1
    40   18   20 1
    41   18   29 1
    42   18   50 1
    43   19   24 ar
    44   19   25 ar
    45   20   22 1
    46   20   51 1
    47   20   52 1
    48   21   23 1
    49   21   53 1
    50   21   54 1
    51   22   27 ar
    52   22   28 ar
    53   23   26 1
    54   23   56 1
    55   23   57 1
    56   24   27 ar
    57   24   58 1
    58   25   28 ar
    59   25   59 1
    60   26   30 1
    61   26   60 1
    62   26   61 1
    63   27   62 1
    64   28   63 1
    65   30   64 1
    66   30   65 1
    67   30   66 1
