@<TRIPOS>MOLECULE
DB00662
   56    57     0     0     0
SMALL
USER_CHARGES

@<TRIPOS>ATOM
      1 O1         -4.5422   -0.4593    1.2639 O.3       1 <0>        -0.4907
      2 O2          4.9223    2.9536    0.5389 O.3       1 <0>        -0.4913
      3 O3          5.3026   -0.8341   -2.3671 O.3       1 <0>        -0.4913
      4 O4          6.0263    1.7548   -1.7004 O.3       1 <0>        -0.4885
      5 O5          2.2014   -0.7643    2.6689 O.2       1 <0>        -0.2702
      6 N1         -6.5889    1.2295   -1.2943 N.3       1 <0>        -0.3051
      7 N2          1.5830   -2.0424    0.8351 N.am      1 <0>        -0.3072
      8 C1         -6.0157    0.9592    0.0238 C.3       1 <0>         0.0325
      9 C2         -0.7704   -2.2051    1.4428 C.ar      1 <0>        -0.0301
     10 C3          0.5816   -2.8308    1.5075 C.3       1 <0>         0.0371
     11 C4         -5.0883   -0.2443   -0.0308 C.3       1 <0>         0.1022
     12 C5         -3.2995   -1.0340    1.3228 C.ar      1 <0>         0.1206
     13 C6          3.2952   -0.3181    0.6435 C.ar      1 <0>         0.0438
     14 C7         -1.1775   -1.3207    2.4416 C.ar      1 <0>        -0.0536
     15 C8         -1.6279   -2.5040    0.3839 C.ar      1 <0>        -0.0536
     16 C9         -2.4420   -0.7351    2.3815 C.ar      1 <0>        -0.0196
     17 C10        -2.8924   -1.9186    0.3240 C.ar      1 <0>        -0.0196
     18 C11         2.3198   -1.0604    1.4829 C.2       1 <0>         0.2446
     19 C12         3.8502   -0.9254   -0.4829 C.ar      1 <0>        -0.0040
     20 C13         3.6580    0.9854    0.9830 C.ar      1 <0>        -0.0040
     21 C14         4.5758    1.6813    0.1963 C.ar      1 <0>         0.1659
     22 C15         4.7678   -0.2293   -1.2698 C.ar      1 <0>         0.1659
     23 C16         5.1308    1.0739   -0.9301 C.ar      1 <0>         0.2035
     24 C17        -7.6968    0.3147   -1.5673 C.3       1 <0>        -0.0129
     25 C18        -7.0395    2.6181   -1.3805 C.3       1 <0>        -0.0129
     26 C19         4.3093    3.5005    1.7047 C.3       1 <0>         0.0790
     27 C20         4.8784   -2.1674   -2.6437 C.3       1 <0>         0.0790
     28 C21         7.4040    1.6275   -1.3562 C.3       1 <0>         0.0791
     29 H1         -5.4104    1.8125    0.3606 H         1 <0>         0.0460
     30 H2         -6.7853    0.8280    0.7962 H         1 <0>         0.0460
     31 H3          0.5720   -3.8192    1.0336 H         1 <0>         0.0512
     32 H4          0.8810   -2.9887    2.5506 H         1 <0>         0.0512
     33 H5         -5.6286   -1.1500   -0.3255 H         1 <0>         0.0709
     34 H6         -4.3031   -0.0338   -0.7698 H         1 <0>         0.0709
     35 H7         -0.5225   -1.0808    3.2746 H         1 <0>         0.0622
     36 H8         -1.3236   -3.1948   -0.3980 H         1 <0>         0.0622
     37 H9          1.6664   -2.1769   -0.1667 H         1 <0>         0.1493
     38 H10        -2.7542   -0.0473    3.1626 H         1 <0>         0.0654
     39 H11        -3.5385   -2.1996   -0.5024 H         1 <0>         0.0654
     40 H12         3.5827   -1.9525   -0.6957 H         1 <0>         0.0663
     41 H13         3.1933    1.4138    1.8643 H         1 <0>         0.0663
     42 H14        -7.3646   -0.7275   -1.5969 H         1 <0>         0.0391
     43 H15        -8.1251    0.5215   -2.5551 H         1 <0>         0.0391
     44 H16        -8.5001    0.4018   -0.8265 H         1 <0>         0.0391
     45 H17        -6.1993    3.3071   -1.2391 H         1 <0>         0.0391
     46 H18        -7.8076    2.8504   -0.6338 H         1 <0>         0.0391
     47 H19        -7.4498    2.8292   -2.3745 H         1 <0>         0.0391
     48 H20         3.2242    3.5917    1.5857 H         1 <0>         0.0660
     49 H21         4.5863    2.9435    2.6063 H         1 <0>         0.0660
     50 H22         4.7006    4.5158    1.8274 H         1 <0>         0.0660
     51 H23         5.1824   -2.8607   -1.8521 H         1 <0>         0.0660
     52 H24         3.8047   -2.2160   -2.8556 H         1 <0>         0.0660
     53 H25         5.3943   -2.4853   -3.5560 H         1 <0>         0.0660
     54 H26         7.5844    2.0020   -0.3436 H         1 <0>         0.0660
     55 H27         7.7259    0.5842   -1.4332 H         1 <0>         0.0660
     56 H28         7.9894    2.2263   -2.0593 H         1 <0>         0.0660
@<TRIPOS>BOND
     1    1   11 1
     2    1   12 1
     3    2   21 1
     4    2   26 1
     5    3   22 1
     6    3   27 1
     7    4   23 1
     8    4   28 1
     9    5   18 2
    10    6    8 1
    11    6   24 1
    12    6   25 1
    13    7   10 1
    14    7   18 am
    15    7   37 1
    16    8   11 1
    17    8   29 1
    18    8   30 1
    19    9   10 1
    20    9   14 ar
    21    9   15 ar
    22   10   31 1
    23   10   32 1
    24   11   33 1
    25   11   34 1
    26   12   16 ar
    27   12   17 ar
    28   13   18 1
    29   13   19 ar
    30   13   20 ar
    31   14   16 ar
    32   14   35 1
    33   15   17 ar
    34   15   36 1
    35   16   38 1
    36   17   39 1
    37   19   22 ar
    38   19   40 1
    39   20   21 ar
    40   20   41 1
    41   21   23 ar
    42   22   23 ar
    43   24   42 1
    44   24   43 1
    45   24   44 1
    46   25   45 1
    47   25   46 1
    48   25   47 1
    49   26   48 1
    50   26   49 1
    51   26   50 1
    52   27   51 1
    53   27   52 1
    54   27   53 1
    55   28   54 1
    56   28   55 1
    57   28   56 1
