@<TRIPOS>MOLECULE
DB00672
   30    30     0     0     0
SMALL
USER_CHARGES

@<TRIPOS>ATOM
      1 Cl1         4.4982    3.2754    0.1523 Cl        1 <0>        -0.0835
      2 S1          1.6250   -2.2811    0.0304 S.o2      1 <0>         0.0756
      3 O1          1.5898   -2.8008    1.3838 O.2       1 <0>        -0.1499
      4 O2          2.2397   -3.0477   -1.0360 O.2       1 <0>        -0.1499
      5 O3         -0.7973   -1.1970    1.6440 O.2       1 <0>        -0.2512
      6 N1          0.0471   -1.8232   -0.4416 N.am      1 <0>        -0.1693
      7 N2         -2.1493   -1.0452   -0.2250 N.am      1 <0>        -0.2982
      8 C1         -3.3221   -0.5349    0.4451 C.3       1 <0>         0.0128
      9 C2          2.4367   -0.7113    0.0649 C.ar      1 <0>         0.1087
     10 C3         -3.3446    0.9880    0.4967 C.3       1 <0>        -0.0402
     11 C4         -0.9722   -1.3369    0.4373 C.2       1 <0>         0.3189
     12 C5          2.4388    0.0228    1.2383 C.ar      1 <0>        -0.0337
     13 C6          3.0554   -0.2450   -1.0823 C.ar      1 <0>        -0.0337
     14 C7         -3.3570    1.6234   -0.8865 C.3       1 <0>        -0.0639
     15 C8          3.0792    1.2616    1.2654 C.ar      1 <0>        -0.0415
     16 C9          3.6959    0.9939   -1.0551 C.ar      1 <0>        -0.0415
     17 C10         3.7079    1.7472    0.1187 C.ar      1 <0>         0.0411
     18 H1         -3.3569   -0.9388    1.4627 H         1 <0>         0.0462
     19 H2         -4.1954   -0.9130   -0.0969 H         1 <0>         0.0462
     20 H3         -4.2357    1.3125    1.0460 H         1 <0>         0.0278
     21 H4         -2.4724    1.3570    1.0493 H         1 <0>         0.0278
     22 H5         -0.1963   -1.9470   -1.4326 H         1 <0>         0.1781
     23 H6         -2.1919   -1.1900   -1.2291 H         1 <0>         0.1503
     24 H7          1.9521   -0.3359    2.1399 H         1 <0>         0.0638
     25 H8          3.0505   -0.8121   -2.0080 H         1 <0>         0.0638
     26 H9         -4.2120    1.2710   -1.4722 H         1 <0>         0.0230
     27 H10        -3.4321    2.7120   -0.7990 H         1 <0>         0.0230
     28 H11        -2.4412    1.3959   -1.4408 H         1 <0>         0.0230
     29 H12         3.0797    1.8385    2.1868 H         1 <0>         0.0633
     30 H13         4.1801    1.3605   -1.9566 H         1 <0>         0.0633
@<TRIPOS>BOND
     1    1   17 1
     2    2    3 2
     3    2    4 2
     4    2    6 1
     5    2    9 1
     6    5   11 2
     7    6   11 am
     8    6   22 1
     9    7    8 1
    10    7   11 am
    11    7   23 1
    12    8   10 1
    13    8   18 1
    14    8   19 1
    15    9   12 ar
    16    9   13 ar
    17   10   14 1
    18   10   20 1
    19   10   21 1
    20   12   15 ar
    21   12   24 1
    22   13   16 ar
    23   13   25 1
    24   14   26 1
    25   14   27 1
    26   14   28 1
    27   15   17 ar
    28   15   29 1
    29   16   17 ar
    30   16   30 1
