@<TRIPOS>MOLECULE
DB00461
   33    34     0     0     0
SMALL
USER_CHARGES

@<TRIPOS>ATOM
      1 O1         -5.1348    0.4807   -0.5442 O.3       1 <0>        -0.4951
      2 O2          5.3120   -0.2427    1.2461 O.2       1 <0>        -0.2977
      3 C1          1.1396    0.5790    0.6616 C.ar      1 <0>        -0.0464
      4 C2          2.5679    0.3229    1.0052 C.3       1 <0>        -0.0210
      5 C3         -1.1401   -0.2336    0.4143 C.ar      1 <0>        -0.0174
      6 C4         -1.5510    1.0607    0.0157 C.ar      1 <0>        -0.0144
      7 C5          0.2088   -0.4578    0.7342 C.ar      1 <0>        -0.0508
      8 C6          3.3897   -0.1100   -0.2148 C.3       1 <0>         0.0095
      9 C7          0.7355    1.8518    0.2696 C.ar      1 <0>        -0.0580
     10 C8         -0.6006    2.0925   -0.0515 C.ar      1 <0>        -0.0537
     11 C9         -2.0904   -1.2655    0.4819 C.ar      1 <0>        -0.0506
     12 C10        -2.9001    1.2848   -0.3040 C.ar      1 <0>        -0.0122
     13 C11        -3.8307    0.2477   -0.2319 C.ar      1 <0>         0.1207
     14 C12        -3.4267   -1.0250    0.1606 C.ar      1 <0>        -0.0194
     15 C13         4.8451   -0.3880    0.1176 C.2       1 <0>         0.1306
     16 C14         5.7081   -0.8578   -1.0247 C.3       1 <0>        -0.0061
     17 C15        -6.0329   -0.6238   -0.4478 C.3       1 <0>         0.0788
     18 H1          3.0103    1.2232    1.4521 H         1 <0>         0.0317
     19 H2          2.6307   -0.4442    1.7886 H         1 <0>         0.0317
     20 H3          0.5347   -1.4507    1.0403 H         1 <0>         0.0626
     21 H4          3.3649    0.6725   -0.9823 H         1 <0>         0.0345
     22 H5          2.9650   -1.0240   -0.6466 H         1 <0>         0.0345
     23 H6          1.4515    2.6671    0.2077 H         1 <0>         0.0620
     24 H7         -0.8939    3.0951   -0.3559 H         1 <0>         0.0624
     25 H8         -1.7959   -2.2680    0.7863 H         1 <0>         0.0625
     26 H9         -3.2325    2.2744   -0.6123 H         1 <0>         0.0660
     27 H10        -4.0960   -1.8751    0.2384 H         1 <0>         0.0654
     28 H11         6.7300   -1.0218   -0.6721 H         1 <0>         0.0306
     29 H12         5.3150   -1.7985   -1.4179 H         1 <0>         0.0306
     30 H13         5.7230   -0.0972   -1.8092 H         1 <0>         0.0306
     31 H14        -7.0255   -0.2588   -0.7316 H         1 <0>         0.0660
     32 H15        -6.1099   -0.9914    0.5811 H         1 <0>         0.0660
     33 H16        -5.7709   -1.4186   -1.1544 H         1 <0>         0.0660
@<TRIPOS>BOND
     1    1   13 1
     2    1   17 1
     3    2   15 2
     4    3    4 1
     5    3    7 ar
     6    3    9 ar
     7    4    8 1
     8    4   18 1
     9    4   19 1
    10    5    6 ar
    11    5    7 ar
    12    5   11 ar
    13    6   10 ar
    14    6   12 ar
    15    7   20 1
    16    8   15 1
    17    8   21 1
    18    8   22 1
    19    9   10 ar
    20    9   23 1
    21   10   24 1
    22   11   14 ar
    23   11   25 1
    24   12   13 ar
    25   12   26 1
    26   13   14 ar
    27   14   27 1
    28   15   16 1
    29   16   28 1
    30   16   29 1
    31   16   30 1
    32   17   31 1
    33   17   32 1
    34   17   33 1
