@<TRIPOS>MOLECULE
DB00251
   67    71     0     0     0
SMALL
USER_CHARGES

@<TRIPOS>ATOM
      1 Cl1         5.0869   -1.9504    2.3374 Cl        1 <0>        -0.0830
      2 Cl2         8.5888   -5.2768   -0.0364 Cl        1 <0>        -0.0835
      3 O1          4.4466   -0.0520    0.6756 O.3       1 <0>        -0.3342
      4 O2          5.5909    0.5263   -1.2849 O.3       1 <0>        -0.3406
      5 O3          1.3305    0.7476   -1.0589 O.3       1 <0>        -0.4893
      6 N1         -6.9088   -0.4545    0.0381 N.3       1 <0>        -0.2969
      7 N2         -4.1178    0.0905   -0.2304 N.pl3     1 <0>        -0.3274
      8 N3          5.9198    2.3738    0.8906 N.pl3     1 <0>        -0.2465
      9 N4          5.0601    2.6909    1.8705 N.2       1 <0>        -0.1582
     10 N5          5.3204    4.4146    0.3895 N.2       1 <0>        -0.2228
     11 C1         -6.4405    0.5767   -0.8962 C.3       1 <0>         0.0149
     12 C2         -6.0257   -0.5051    1.2095 C.3       1 <0>         0.0149
     13 C3         -5.0179    0.2780   -1.3752 C.3       1 <0>         0.0250
     14 C4         -4.5886   -0.8387    0.8013 C.3       1 <0>         0.0250
     15 C5          5.7496    0.0434    0.0645 C.3       1 <0>         0.2186
     16 C6         -8.2878   -0.1884    0.4462 C.3       1 <0>         0.0049
     17 C7          3.5221    0.0333   -0.4109 C.3       1 <0>         0.1195
     18 C8          4.2297    0.9462   -1.3783 C.3       1 <0>         0.0808
     19 C9          6.5637    1.0670    0.8551 C.3       1 <0>         0.1018
     20 C10        -2.7443    0.2573   -0.4397 C.ar      1 <0>         0.0300
     21 C11         6.4500   -1.3073    0.0669 C.ar      1 <0>         0.0313
     22 C12         2.1860    0.5591    0.0674 C.3       1 <0>         0.1179
     23 C13        -8.7617   -1.2512    1.4336 C.3       1 <0>        -0.0497
     24 C14        -9.1838   -0.1483   -0.7876 C.3       1 <0>        -0.0497
     25 C15        -2.1891   -0.0283   -1.6870 C.ar      1 <0>        -0.0372
     26 C16        -1.9302    0.7076    0.5996 C.ar      1 <0>        -0.0372
     27 C17        -0.0055    0.5869   -0.8558 C.ar      1 <0>         0.1207
     28 C18         6.2031   -2.2582    1.0571 C.ar      1 <0>         0.0507
     29 C19         7.3577   -1.5842   -0.9554 C.ar      1 <0>        -0.0507
     30 C20        -0.8198    0.1365   -1.8950 C.ar      1 <0>        -0.0182
     31 C21        -0.5607    0.8723    0.3916 C.ar      1 <0>        -0.0182
     32 C22         6.8639   -3.4862    1.0250 C.ar      1 <0>        -0.0246
     33 C23         8.0185   -2.8121   -0.9873 C.ar      1 <0>        -0.0429
     34 C24         6.0690    3.4035    0.0145 C.cat     1 <0>         0.1145
     35 C25         7.7716   -3.7631    0.0028 C.ar      1 <0>         0.0424
     36 C26         4.7259    3.9350    1.5214 C.2       1 <0>         0.1379
     37 H1         -7.0474    0.6180   -1.8054 H         1 <0>         0.0442
     38 H2         -6.4714    1.5703   -0.4292 H         1 <0>         0.0442
     39 H3         -6.0424    0.4486    1.7541 H         1 <0>         0.0442
     40 H4         -6.3165   -1.2936    1.9101 H         1 <0>         0.0442
     41 H5         -5.0244   -0.6260   -1.9981 H         1 <0>         0.0476
     42 H6         -4.6898    1.1208   -1.9972 H         1 <0>         0.0476
     43 H7         -3.9580   -0.7958    1.6969 H         1 <0>         0.0476
     44 H8         -4.5327   -1.8647    0.4150 H         1 <0>         0.0476
     45 H9         -8.3655    0.7867    0.9469 H         1 <0>         0.0457
     46 H10         3.4109   -0.9664   -0.8498 H         1 <0>         0.0654
     47 H11         4.1387    2.0014   -1.1151 H         1 <0>         0.0588
     48 H12         3.8768    0.8228   -2.4064 H         1 <0>         0.0588
     49 H13         7.5531    1.2238    0.4078 H         1 <0>         0.0567
     50 H14         6.7075    0.7622    1.8987 H         1 <0>         0.0567
     51 H15         1.7827   -0.1712    0.7819 H         1 <0>         0.0723
     52 H16         2.3126    1.5125    0.5947 H         1 <0>         0.0723
     53 H17        -9.8473   -1.1863    1.5734 H         1 <0>         0.0245
     54 H18        -8.3260   -1.1234    2.4296 H         1 <0>         0.0245
     55 H19        -8.5433   -2.2648    1.0781 H         1 <0>         0.0245
     56 H20        -9.0117   -1.0067   -1.4473 H         1 <0>         0.0245
     57 H21        -9.0643    0.7735   -1.3658 H         1 <0>         0.0245
     58 H22       -10.2399   -0.1772   -0.4937 H         1 <0>         0.0245
     59 H23        -2.7859   -0.3974   -2.5160 H         1 <0>         0.0637
     60 H24        -2.3482    0.9522    1.5728 H         1 <0>         0.0637
     61 H25         7.5798   -0.8581   -1.7324 H         1 <0>         0.0623
     62 H26        -0.3915   -0.0911   -2.8674 H         1 <0>         0.0655
     63 H27         0.0319    1.2546    1.2174 H         1 <0>         0.0655
     64 H28         6.6727   -4.2290    1.7967 H         1 <0>         0.0647
     65 H29         8.7256   -3.0132   -1.7880 H         1 <0>         0.0632
     66 H30         6.7151    3.3661   -0.8511 H         1 <0>         0.1044
     67 H31         4.0263    4.5096    2.1096 H         1 <0>         0.1065
@<TRIPOS>BOND
     1    1   28 1
     2    2   35 1
     3    3   15 1
     4    3   17 1
     5    4   15 1
     6    4   18 1
     7    5   22 1
     8    5   27 1
     9    6   11 1
    10    6   12 1
    11    6   16 1
    12    7   13 1
    13    7   14 1
    14    7   20 1
    15    8    9 1
    16    8   19 1
    17    8   34 2
    18    9   36 1
    19   10   34 1
    20   10   36 2
    21   11   13 1
    22   11   37 1
    23   11   38 1
    24   12   14 1
    25   12   39 1
    26   12   40 1
    27   13   41 1
    28   13   42 1
    29   14   43 1
    30   14   44 1
    31   15   19 1
    32   15   21 1
    33   16   23 1
    34   16   24 1
    35   16   45 1
    36   17   18 1
    37   17   22 1
    38   17   46 1
    39   18   47 1
    40   18   48 1
    41   19   49 1
    42   19   50 1
    43   20   25 ar
    44   20   26 ar
    45   21   28 ar
    46   21   29 ar
    47   22   51 1
    48   22   52 1
    49   23   53 1
    50   23   54 1
    51   23   55 1
    52   24   56 1
    53   24   57 1
    54   24   58 1
    55   25   30 ar
    56   25   59 1
    57   26   31 ar
    58   26   60 1
    59   27   30 ar
    60   27   31 ar
    61   28   32 ar
    62   29   33 ar
    63   29   61 1
    64   30   62 1
    65   31   63 1
    66   32   35 ar
    67   32   64 1
    68   33   35 ar
    69   33   65 1
    70   34   66 1
    71   36   67 1
