@<TRIPOS>MOLECULE
DB00953
   39    41     0     0     0
SMALL
USER_CHARGES

@<TRIPOS>ATOM
      1 N1         -0.0627    3.6071   -0.6304 N.pl3     1 <0>        -0.3604
      2 N2          3.7934   -0.7627   -0.0450 N.3       1 <0>        -0.3080
      3 N3         -3.4557   -1.6485    0.1649 N.pl3     1 <0>        -0.2477
      4 N4         -4.5478   -1.5596   -0.5866 N.2       1 <0>        -0.1581
      5 N5         -3.2368   -3.3463   -1.1542 N.2       1 <0>        -0.2228
      6 C1          1.0854    1.8927    0.1879 C.2       1 <0>        -0.0211
      7 C2         -0.3008    1.5863    0.2841 C.ar      1 <0>         0.0032
      8 C3          2.2078    1.0329    0.6154 C.3       1 <0>        -0.0129
      9 C4         -0.9991    2.6782   -0.2360 C.ar      1 <0>         0.0467
     10 C5          2.7048    0.0954   -0.5002 C.3       1 <0>         0.0024
     11 C6         -1.0309    0.4812    0.7652 C.ar      1 <0>        -0.0474
     12 C7          1.1999    3.1416   -0.3780 C.2       1 <0>         0.0059
     13 C8         -2.4291    0.5096    0.7084 C.ar      1 <0>        -0.0254
     14 C9         -2.3964    2.7205   -0.2992 C.ar      1 <0>        -0.0375
     15 C10        -3.0992    1.6130    0.1839 C.ar      1 <0>        -0.0548
     16 C11        -3.2092   -0.6574    1.2167 C.3       1 <0>         0.0682
     17 C12         4.2125   -1.6721   -1.1126 C.3       1 <0>        -0.0130
     18 C13         3.3897   -1.5216    1.1396 C.3       1 <0>        -0.0130
     19 C14        -2.6775   -2.6959   -0.1603 C.cat     1 <0>         0.1146
     20 C15        -4.3707   -2.6193   -1.3787 C.2       1 <0>         0.1380
     21 H1          3.0405    1.6597    0.9615 H         1 <0>         0.0326
     22 H2          1.8637    0.4720    1.4909 H         1 <0>         0.0326
     23 H3          3.0511    0.7074   -1.3435 H         1 <0>         0.0429
     24 H4          1.8629   -0.5050   -0.8724 H         1 <0>         0.0429
     25 H5         -0.5114   -0.3818    1.1729 H         1 <0>         0.0627
     26 H6          2.0648    3.7414   -0.6250 H         1 <0>         0.0810
     27 H7         -0.2772    4.5030   -1.0459 H         1 <0>         0.1653
     28 H8         -2.9189    3.5790   -0.7075 H         1 <0>         0.0638
     29 H9         -4.1862    1.6271    0.1427 H         1 <0>         0.0622
     30 H10        -2.6802   -1.1708    2.0289 H         1 <0>         0.0559
     31 H11        -4.1835   -0.3518    1.6175 H         1 <0>         0.0559
     32 H12         5.0722   -2.2717   -0.7930 H         1 <0>         0.0391
     33 H13         3.4092   -2.3535   -1.4154 H         1 <0>         0.0391
     34 H14         4.5366   -1.1073   -1.9940 H         1 <0>         0.0391
     35 H15         3.3466   -0.8897    2.0320 H         1 <0>         0.0391
     36 H16         2.4288   -2.0321    1.0052 H         1 <0>         0.0391
     37 H17         4.1397   -2.2865    1.3762 H         1 <0>         0.0391
     38 H18        -1.7458   -2.9450    0.3280 H         1 <0>         0.1044
     39 H19        -5.0903   -2.8692   -2.1439 H         1 <0>         0.1065
@<TRIPOS>BOND
     1    1    9 1
     2    1   12 1
     3    1   27 1
     4    2   10 1
     5    2   17 1
     6    2   18 1
     7    3    4 1
     8    3   16 1
     9    3   19 2
    10    4   20 1
    11    5   19 1
    12    5   20 2
    13    6    7 1
    14    6    8 1
    15    6   12 2
    16    7    9 ar
    17    7   11 ar
    18    8   10 1
    19    8   21 1
    20    8   22 1
    21    9   14 ar
    22   10   23 1
    23   10   24 1
    24   11   13 ar
    25   11   25 1
    26   12   26 1
    27   13   15 ar
    28   13   16 1
    29   14   15 ar
    30   14   28 1
    31   15   29 1
    32   16   30 1
    33   16   31 1
    34   17   32 1
    35   17   33 1
    36   17   34 1
    37   18   35 1
    38   18   36 1
    39   18   37 1
    40   19   38 1
    41   20   39 1
