@<TRIPOS>MOLECULE
DB00700
   60    65     0     0     0
SMALL
USER_CHARGES

@<TRIPOS>ATOM
      1 O1          0.6836   -0.3766   -1.6023 O.3       1 <0>        -0.3635
      2 O2         -4.4695   -1.2956    0.2155 O.3       1 <0>        -0.4575
      3 O3          1.8483    3.4761    0.1203 O.3       1 <0>        -0.4677
      4 O4          0.5613    2.1220   -1.2385 O.2       1 <0>        -0.2505
      5 O5         -6.6827   -1.5536   -0.3288 O.2       1 <0>        -0.2508
      6 O6          6.4023   -0.3160   -0.9395 O.2       1 <0>        -0.2927
      7 C1          0.9238   -0.7213   -0.2318 C.3       1 <0>         0.1088
      8 C2          0.2361    0.1896    0.7813 C.3       1 <0>         0.0080
      9 C3         -2.0241   -0.8377    0.1004 C.3       1 <0>         0.0134
     10 C4         -1.2316    0.4591    0.4028 C.3       1 <0>        -0.0255
     11 C5          0.0438   -1.5821   -1.1455 C.3       1 <0>         0.0902
     12 C6          2.3945   -1.1010    0.0801 C.3       1 <0>         0.0215
     13 C7         -1.4591   -1.4721   -1.1849 C.3       1 <0>        -0.0145
     14 C8         -3.4755   -0.2758    0.0343 C.3       1 <0>         0.1197
     15 C9          1.0661    1.4615    1.0256 C.3       1 <0>         0.0659
     16 C10        -2.0699    1.1710    1.4669 C.3       1 <0>        -0.0456
     17 C11        -3.5160    0.7163    1.2263 C.3       1 <0>        -0.0120
     18 C12         3.1951    0.1232    0.5550 C.2       1 <0>        -0.0567
     19 C13         2.4858    1.0967    1.4780 C.3       1 <0>        -0.0174
     20 C14        -1.9212   -1.9002    1.2324 C.3       1 <0>        -0.0556
     21 C15         3.0972   -1.7204   -1.1669 C.3       1 <0>        -0.0342
     22 C16        -3.9145    0.4015   -1.2606 C.3       1 <0>        -0.0022
     23 C17         2.3874   -2.1556    1.2137 C.3       1 <0>        -0.0531
     24 C18         1.1112    2.3674   -0.1735 C.2       1 <0>         0.3106
     25 C19         4.6008   -1.8893   -1.0046 C.3       1 <0>         0.0107
     26 C20        -5.4255    0.3348   -1.1761 C.3       1 <0>         0.0486
     27 C21         4.4670    0.3711    0.1992 C.2       1 <0>        -0.0193
     28 C22        -5.6324   -0.9359   -0.4089 C.2       1 <0>         0.3077
     29 C23         5.2421   -0.5802   -0.6296 C.2       1 <0>         0.1561
     30 C24         1.9746    4.4292   -0.9398 C.3       1 <0>         0.0817
     31 H1          0.2210   -0.3485    1.7378 H         1 <0>         0.0341
     32 H2         -1.2853    1.0761   -0.5002 H         1 <0>         0.0311
     33 H3          0.4080   -2.5197   -1.5385 H         1 <0>         0.0625
     34 H4         -1.7079   -0.8831   -2.0723 H         1 <0>         0.0298
     35 H5         -1.8986   -2.4641   -1.3431 H         1 <0>         0.0298
     36 H6          0.5849    2.0374    1.8274 H         1 <0>         0.0420
     37 H7         -1.9765    2.2589    1.3806 H         1 <0>         0.0269
     38 H8         -1.7579    0.8961    2.4810 H         1 <0>         0.0269
     39 H9         -3.9141    0.2344    2.1276 H         1 <0>         0.0304
     40 H10        -4.1596    1.5815    1.0336 H         1 <0>         0.0304
     41 H11         2.4203    0.6234    2.4671 H         1 <0>         0.0318
     42 H12         3.0880    2.0009    1.6297 H         1 <0>         0.0318
     43 H13        -2.2272   -1.5062    2.2063 H         1 <0>         0.0236
     44 H14        -2.5595   -2.7640    1.0133 H         1 <0>         0.0236
     45 H15        -0.9050   -2.2899    1.3476 H         1 <0>         0.0236
     46 H16         2.9347   -1.0800   -2.0444 H         1 <0>         0.0279
     47 H17         2.6608   -2.6960   -1.4120 H         1 <0>         0.0279
     48 H18        -3.6199   -0.1756   -2.1421 H         1 <0>         0.0309
     49 H19        -3.5414    1.4222   -1.3851 H         1 <0>         0.0309
     50 H20         1.8890   -1.7882    2.1170 H         1 <0>         0.0239
     51 H21         1.8527   -3.0600    0.9006 H         1 <0>         0.0239
     52 H22         3.3996   -2.4505    1.5097 H         1 <0>         0.0239
     53 H23         5.0270   -2.2225   -1.9576 H         1 <0>         0.0345
     54 H24         4.8499   -2.6350   -0.2437 H         1 <0>         0.0345
     55 H25        -5.8782    0.2719   -2.1684 H         1 <0>         0.0379
     56 H26        -5.8475    1.1717   -0.6137 H         1 <0>         0.0379
     57 H27         4.9941    1.2553    0.5423 H         1 <0>         0.0652
     58 H28         0.9894    4.8098   -1.2261 H         1 <0>         0.0661
     59 H29         2.4786    3.9751   -1.7983 H         1 <0>         0.0661
     60 H30         2.5815    5.2629   -0.5769 H         1 <0>         0.0661
@<TRIPOS>BOND
     1    1    7 1
     2    1   11 1
     3    2   14 1
     4    2   28 1
     5    3   24 1
     6    3   30 1
     7    4   24 2
     8    5   28 2
     9    6   29 2
    10    7    8 1
    11    7   11 1
    12    7   12 1
    13    8   10 1
    14    8   15 1
    15    8   31 1
    16    9   10 1
    17    9   13 1
    18    9   14 1
    19    9   20 1
    20   10   16 1
    21   10   32 1
    22   11   13 1
    23   11   33 1
    24   12   18 1
    25   12   21 1
    26   12   23 1
    27   13   34 1
    28   13   35 1
    29   14   17 1
    30   14   22 1
    31   15   19 1
    32   15   24 1
    33   15   36 1
    34   16   17 1
    35   16   37 1
    36   16   38 1
    37   17   39 1
    38   17   40 1
    39   18   19 1
    40   18   27 2
    41   19   41 1
    42   19   42 1
    43   20   43 1
    44   20   44 1
    45   20   45 1
    46   21   25 1
    47   21   46 1
    48   21   47 1
    49   22   26 1
    50   22   48 1
    51   22   49 1
    52   23   50 1
    53   23   51 1
    54   23   52 1
    55   25   29 1
    56   25   53 1
    57   25   54 1
    58   26   28 1
    59   26   55 1
    60   26   56 1
    61   27   29 1
    62   27   57 1
    63   30   58 1
    64   30   59 1
    65   30   60 1
