@<TRIPOS>MOLECULE
DB00867
   42    43     0     0     0
SMALL
USER_CHARGES

@<TRIPOS>ATOM
      1 O1         -3.3932   -2.4281   -0.9806 O.3       1 <0>        -0.3856
      2 O2         -5.1854    3.4346   -0.0082 O.3       1 <0>        -0.5068
      3 O3          7.0877    0.9731   -0.5950 O.3       1 <0>        -0.5068
      4 N1         -0.4478   -0.6724    0.4552 N.3       1 <0>        -0.3105
      5 C1         -1.1746   -1.5589   -0.4623 C.3       1 <0>         0.0349
      6 C2         -2.6652   -1.6128   -0.0581 C.3       1 <0>         0.0952
      7 C3          0.9399   -0.5435    0.0462 C.3       1 <0>         0.0002
      8 C4         -0.5040   -2.9334   -0.4210 C.3       1 <0>        -0.0470
      9 C5         -3.3410   -0.2583   -0.0446 C.ar      1 <0>        -0.0175
     10 C6          1.7089    0.3726    0.9987 C.3       1 <0>        -0.0151
     11 C7          3.1465    0.5328    0.5725 C.ar      1 <0>        -0.0459
     12 C8         -3.9521    0.1795    1.1169 C.ar      1 <0>        -0.0526
     13 C9         -3.3330    0.5110   -1.1948 C.ar      1 <0>        -0.0526
     14 C10         4.1015   -0.3500    1.0529 C.ar      1 <0>        -0.0551
     15 C11         3.4890    1.5611   -0.2923 C.ar      1 <0>        -0.0551
     16 C12        -4.5755    1.4273    1.1288 C.ar      1 <0>        -0.0198
     17 C13        -3.9564    1.7587   -1.1829 C.ar      1 <0>        -0.0198
     18 C14        -4.5776    2.2170   -0.0210 C.ar      1 <0>         0.1169
     19 C15         5.4314   -0.2009    0.6590 C.ar      1 <0>        -0.0199
     20 C16         4.8189    1.7100   -0.6863 C.ar      1 <0>        -0.0199
     21 C17         5.7900    0.8290   -0.2105 C.ar      1 <0>         0.1169
     22 H1         -1.0933   -1.1839   -1.4907 H         1 <0>         0.0486
     23 H2         -2.7621   -2.0923    0.9239 H         1 <0>         0.0659
     24 H3         -0.4988   -1.0362    1.4064 H         1 <0>         0.1223
     25 H4          1.4656   -1.5035    0.0497 H         1 <0>         0.0427
     26 H5          0.9955   -0.1382   -0.9719 H         1 <0>         0.0427
     27 H6          0.4410   -2.9591   -0.9727 H         1 <0>         0.0246
     28 H7         -0.3268   -3.2764    0.6050 H         1 <0>         0.0246
     29 H8         -1.1414   -3.6855   -0.9001 H         1 <0>         0.0246
     30 H9          1.6733   -0.0234    2.0225 H         1 <0>         0.0325
     31 H10         1.2301    1.3599    1.0456 H         1 <0>         0.0325
     32 H11        -3.9566   -0.4260    2.0184 H         1 <0>         0.0622
     33 H12        -2.8639    0.1674   -2.1115 H         1 <0>         0.0622
     34 H13        -2.9915   -2.3372   -1.8612 H         1 <0>         0.2103
     35 H14         3.8318   -1.1563    1.7290 H         1 <0>         0.0621
     36 H15         2.7396    2.2510   -0.6696 H         1 <0>         0.0621
     37 H16        -5.0557    1.7728    2.0404 H         1 <0>         0.0654
     38 H17        -3.9567    2.3685   -2.0822 H         1 <0>         0.0654
     39 H18         6.1833   -0.8907    1.0325 H         1 <0>         0.0654
     40 H19         5.0852    2.5161   -1.3647 H         1 <0>         0.0654
     41 H20        -5.5617    3.5898    0.8753 H         1 <0>         0.2921
     42 H21         7.1551    1.7345   -1.1966 H         1 <0>         0.2921
@<TRIPOS>BOND
     1    1    6 1
     2    1   34 1
     3    2   18 1
     4    2   41 1
     5    3   21 1
     6    3   42 1
     7    4    5 1
     8    4    7 1
     9    4   24 1
    10    5    6 1
    11    5    8 1
    12    5   22 1
    13    6    9 1
    14    6   23 1
    15    7   10 1
    16    7   25 1
    17    7   26 1
    18    8   27 1
    19    8   28 1
    20    8   29 1
    21    9   12 ar
    22    9   13 ar
    23   10   11 1
    24   10   30 1
    25   10   31 1
    26   11   14 ar
    27   11   15 ar
    28   12   16 ar
    29   12   32 1
    30   13   17 ar
    31   13   33 1
    32   14   19 ar
    33   14   35 1
    34   15   20 ar
    35   15   36 1
    36   16   18 ar
    37   16   37 1
    38   17   18 ar
    39   17   38 1
    40   19   21 ar
    41   19   39 1
    42   20   21 ar
    43   20   40 1
