@<TRIPOS>MOLECULE
DB00415
   43    45     0     0     0
SMALL
USER_CHARGES

@<TRIPOS>ATOM
      1 S1          0.7575    0.2497   -1.0096 S.3       1 <0>        -0.1273
      2 O1          1.7855   -2.7910    2.0086 O.2       1 <0>        -0.2734
      3 O2          4.9906    0.6111    1.1010 O.3       1 <0>        -0.4793
      4 O3          4.9508   -1.5122    0.2727 O.2       1 <0>        -0.2489
      5 O4         -1.9385   -2.0802   -1.6985 O.2       1 <0>        -0.2737
      6 N1          2.3030   -1.5212    0.0877 N.am      1 <0>        -0.2708
      7 N2         -0.8276   -2.0097    0.3356 N.am      1 <0>        -0.3002
      8 N3         -4.3540   -1.9258   -0.3671 N.3       1 <0>        -0.3163
      9 C1          1.3112   -1.4945   -0.9914 C.3       1 <0>         0.1005
     10 C2          2.4363    0.8287   -0.4479 C.3       1 <0>         0.0417
     11 C3          2.8940   -0.2745    0.5304 C.3       1 <0>         0.1379
     12 C4          0.4751   -2.4766   -0.1596 C.3       1 <0>         0.1277
     13 C5          1.6092   -2.3883    0.8812 C.2       1 <0>         0.2402
     14 C6          3.3224    0.9851   -1.6912 C.3       1 <0>        -0.0484
     15 C7          2.2862    2.1758    0.2613 C.3       1 <0>        -0.0484
     16 C8          4.3720   -0.4889    0.6063 C.2       1 <0>         0.3269
     17 C9         -1.9425   -1.8485   -0.4906 C.2       1 <0>         0.2350
     18 C10        -3.1675   -1.3321    0.2561 C.3       1 <0>         0.1079
     19 C11        -3.2073    0.1820    0.2464 C.ar      1 <0>        -0.0219
     20 C12        -2.5895    0.8793    1.2692 C.ar      1 <0>        -0.0566
     21 C13        -3.8607    0.8330   -0.7848 C.ar      1 <0>        -0.0566
     22 C14        -2.6261    2.2736    1.2604 C.ar      1 <0>        -0.0614
     23 C15        -3.8973    2.2274   -0.7935 C.ar      1 <0>        -0.0614
     24 C16        -3.2799    2.9478    0.2291 C.ar      1 <0>        -0.0617
     25 H1          1.7026   -1.8797   -1.9373 H         1 <0>         0.0640
     26 H2          2.5299   -0.0883    1.5499 H         1 <0>         0.0631
     27 H3          0.3979   -3.4782   -0.5993 H         1 <0>         0.0622
     28 H4          3.4853    0.0320   -2.2068 H         1 <0>         0.0244
     29 H5          2.8812    1.6844   -2.4116 H         1 <0>         0.0244
     30 H6          4.3077    1.3859   -1.4285 H         1 <0>         0.0244
     31 H7          1.8719    2.9384   -0.4087 H         1 <0>         0.0244
     32 H8          1.6266    2.1053    1.1342 H         1 <0>         0.0244
     33 H9          3.2542    2.5482    0.6132 H         1 <0>         0.0244
     34 H10        -0.9332   -1.7866    1.3224 H         1 <0>         0.1496
     35 H11        -3.1394   -1.6895    1.2932 H         1 <0>         0.0605
     36 H12         5.9624    0.4907    1.1578 H         1 <0>         0.2951
     37 H13        -5.1849   -1.6574    0.1600 H         1 <0>         0.1192
     38 H14        -4.3002   -2.9420   -0.3006 H         1 <0>         0.1192
     39 H15        -2.0771    0.3642    2.0764 H         1 <0>         0.0621
     40 H16        -4.3343    0.3019   -1.6046 H         1 <0>         0.0621
     41 H17        -2.1443    2.8345    2.0560 H         1 <0>         0.0618
     42 H18        -4.4024    2.7527   -1.5988 H         1 <0>         0.0618
     43 H19        -3.3069    4.0334    0.2214 H         1 <0>         0.0618
@<TRIPOS>BOND
     1    1    9 1
     2    1   10 1
     3    2   13 2
     4    3   16 1
     5    3   36 1
     6    4   16 2
     7    5   17 2
     8    6    9 1
     9    6   11 1
    10    6   13 am
    11    7   12 1
    12    7   17 am
    13    7   34 1
    14    8   18 1
    15    8   37 1
    16    8   38 1
    17    9   12 1
    18    9   25 1
    19   10   11 1
    20   10   14 1
    21   10   15 1
    22   11   16 1
    23   11   26 1
    24   12   13 1
    25   12   27 1
    26   14   28 1
    27   14   29 1
    28   14   30 1
    29   15   31 1
    30   15   32 1
    31   15   33 1
    32   17   18 1
    33   18   19 1
    34   18   35 1
    35   19   20 ar
    36   19   21 ar
    37   20   22 ar
    38   20   39 1
    39   21   23 ar
    40   21   40 1
    41   22   24 ar
    42   22   41 1
    43   23   24 ar
    44   23   42 1
    45   24   43 1
