@<TRIPOS>MOLECULE
DB00343
   55    57     0     0     0
SMALL
USER_CHARGES

@<TRIPOS>ATOM
      1 S1          0.1593   -1.2093   -2.1691 S.3       1 <0>        -0.1111
      2 O1          1.6688   -1.7068    1.5995 O.3       1 <0>        -0.4506
      3 O2          0.2671    0.5288    1.5823 O.2       1 <0>        -0.2711
      4 O3          5.9849    1.5787   -1.1958 O.3       1 <0>        -0.4951
      5 O4          0.0386   -1.8879    3.2264 O.2       1 <0>        -0.2511
      6 N1         -1.5143   -0.4176    0.4283 N.am      1 <0>        -0.2661
      7 N2         -4.0054    2.3716    0.3316 N.3       1 <0>        -0.3068
      8 C1          1.3173   -1.6170   -0.8058 C.3       1 <0>         0.0805
      9 C2          0.6693   -1.6132    0.5877 C.3       1 <0>         0.1947
     10 C3         -0.1883   -0.3869    0.8901 C.2       1 <0>         0.2622
     11 C4         -2.4437    0.5905    0.9385 C.3       1 <0>         0.0327
     12 C5         -2.0518   -1.4351   -0.4307 C.ar      1 <0>         0.0498
     13 C6          2.5715   -0.7582   -0.9110 C.ar      1 <0>        -0.0299
     14 C7         -1.3565   -1.9315   -1.5535 C.ar      1 <0>         0.0300
     15 C8         -3.0627    1.3937   -0.1959 C.3       1 <0>         0.0145
     16 C9         -3.3363   -1.9454   -0.1614 C.ar      1 <0>        -0.0392
     17 C10        -1.9369   -2.9363   -2.3465 C.ar      1 <0>        -0.0465
     18 C11         2.4863    0.6189   -0.7209 C.ar      1 <0>        -0.0539
     19 C12         3.7978   -1.3538   -1.1959 C.ar      1 <0>        -0.0539
     20 C13        -3.8974   -2.9498   -0.9518 C.ar      1 <0>        -0.0599
     21 C14        -3.1945   -3.4508   -2.0395 C.ar      1 <0>        -0.0606
     22 C15         3.6345    1.4052   -0.8164 C.ar      1 <0>        -0.0197
     23 C16         4.9460   -0.5674   -1.2912 C.ar      1 <0>        -0.0197
     24 C17        -3.3361    3.2868    1.2583 C.3       1 <0>        -0.0130
     25 C18        -4.6336    3.1227   -0.7573 C.3       1 <0>        -0.0130
     26 C19         4.8642    0.8121   -1.1015 C.ar      1 <0>         0.1201
     27 C20         1.2125   -1.8420    2.8841 C.2       1 <0>         0.3047
     28 C21         2.3679   -1.9285    3.8346 C.3       1 <0>         0.0333
     29 C22         5.8307    2.9823   -0.9905 C.3       1 <0>         0.0788
     30 H1          1.6243   -2.6550   -0.9930 H         1 <0>         0.0506
     31 H2          0.0505   -2.5150    0.6868 H         1 <0>         0.0848
     32 H3         -3.1980    0.1135    1.5738 H         1 <0>         0.0481
     33 H4         -1.8835    1.2476    1.6086 H         1 <0>         0.0481
     34 H5         -3.5973    0.7309   -0.8854 H         1 <0>         0.0442
     35 H6         -2.2697    1.8784   -0.7821 H         1 <0>         0.0442
     36 H7         -3.9192   -1.6121    0.6920 H         1 <0>         0.0636
     37 H8         -1.4232   -3.3185   -3.2265 H         1 <0>         0.0629
     38 H9          1.5405    1.1144   -0.5315 H         1 <0>         0.0622
     39 H10         3.8784   -2.4269   -1.3457 H         1 <0>         0.0622
     40 H11        -4.8818   -3.3416   -0.7130 H         1 <0>         0.0618
     41 H12        -3.6306   -4.2282   -2.6595 H         1 <0>         0.0618
     42 H13         3.4988    2.4708   -0.6652 H         1 <0>         0.0654
     43 H14         5.9012   -1.0350   -1.5136 H         1 <0>         0.0654
     44 H15        -3.1086    2.8065    2.2149 H         1 <0>         0.0391
     45 H16        -4.0013    4.1198    1.5175 H         1 <0>         0.0391
     46 H17        -2.4194    3.7158    0.8373 H         1 <0>         0.0391
     47 H18        -5.3846    3.8168   -0.3639 H         1 <0>         0.0391
     48 H19        -3.9028    3.6965   -1.3387 H         1 <0>         0.0391
     49 H20        -5.1619    2.4456   -1.4379 H         1 <0>         0.0391
     50 H21         1.9908   -2.0307    4.8562 H         1 <0>         0.0342
     51 H22         2.9769   -2.8045    3.5978 H         1 <0>         0.0342
     52 H23         2.9656   -1.0156    3.7733 H         1 <0>         0.0342
     53 H24         6.8213    3.4358   -1.1001 H         1 <0>         0.0660
     54 H25         5.1869    3.4321   -1.7539 H         1 <0>         0.0660
     55 H26         5.4876    3.2051    0.0255 H         1 <0>         0.0660
@<TRIPOS>BOND
     1    1    8 1
     2    1   14 1
     3    2    9 1
     4    2   27 1
     5    3   10 2
     6    4   26 1
     7    4   29 1
     8    5   27 2
     9    6   10 am
    10    6   11 1
    11    6   12 1
    12    7   15 1
    13    7   24 1
    14    7   25 1
    15    8    9 1
    16    8   13 1
    17    8   30 1
    18    9   10 1
    19    9   31 1
    20   11   15 1
    21   11   32 1
    22   11   33 1
    23   12   14 ar
    24   12   16 ar
    25   13   18 ar
    26   13   19 ar
    27   14   17 ar
    28   15   34 1
    29   15   35 1
    30   16   20 ar
    31   16   36 1
    32   17   21 ar
    33   17   37 1
    34   18   22 ar
    35   18   38 1
    36   19   23 ar
    37   19   39 1
    38   20   21 ar
    39   20   40 1
    40   21   41 1
    41   22   26 ar
    42   22   42 1
    43   23   26 ar
    44   23   43 1
    45   24   44 1
    46   24   45 1
    47   24   46 1
    48   25   47 1
    49   25   48 1
    50   25   49 1
    51   27   28 1
    52   28   50 1
    53   28   51 1
    54   28   52 1
    55   29   53 1
    56   29   54 1
    57   29   55 1
