@<TRIPOS>MOLECULE
DB00397
   24    24     0     0     0
SMALL
USER_CHARGES

@<TRIPOS>ATOM
      1 O1         -1.0576    0.4087    1.8371 O.3       1 <0>        -0.3856
      2 N1         -3.1047   -0.5465    0.0247 N.3       1 <0>        -0.3251
      3 C1         -0.7591   -0.4997    0.7735 C.3       1 <0>         0.0950
      4 C2         -1.7289   -0.2688   -0.4072 C.3       1 <0>         0.0324
      5 C3          0.6965   -0.2894    0.4149 C.ar      1 <0>        -0.0177
      6 C4         -1.6806    1.1658   -0.9361 C.3       1 <0>        -0.0472
      7 C5          1.4394   -1.3608   -0.0492 C.ar      1 <0>        -0.0561
      8 C6          1.2524    0.9697    0.5597 C.ar      1 <0>        -0.0561
      9 C7          2.7808   -1.1670   -0.3791 C.ar      1 <0>        -0.0614
     10 C8          2.5937    1.1636    0.2295 C.ar      1 <0>        -0.0614
     11 C9          3.3578    0.0951   -0.2397 C.ar      1 <0>        -0.0617
     12 H1         -0.8837   -1.5118    1.1800 H         1 <0>         0.0659
     13 H2         -1.4783   -0.9544   -1.2256 H         1 <0>         0.0484
     14 H3         -0.7122    1.3922   -1.3923 H         1 <0>         0.0246
     15 H4         -2.4325    1.3138   -1.7205 H         1 <0>         0.0246
     16 H5         -1.8760    1.9047   -0.1512 H         1 <0>         0.0246
     17 H6          0.9973   -2.3462   -0.1627 H         1 <0>         0.0621
     18 H7          0.6809    1.8231    0.9118 H         1 <0>         0.0621
     19 H8         -3.1743   -1.5136    0.3388 H         1 <0>         0.1185
     20 H9         -3.7378   -0.4566   -0.7690 H         1 <0>         0.1185
     21 H10        -1.9935    0.2834    2.0702 H         1 <0>         0.2103
     22 H11         3.3756   -1.9987   -0.7452 H         1 <0>         0.0618
     23 H12         3.0428    2.1469    0.3352 H         1 <0>         0.0618
     24 H13         4.4020    0.2464   -0.4976 H         1 <0>         0.0618
@<TRIPOS>BOND
     1    1    3 1
     2    1   21 1
     3    2    4 1
     4    2   19 1
     5    2   20 1
     6    3    4 1
     7    3    5 1
     8    3   12 1
     9    4    6 1
    10    4   13 1
    11    5    7 ar
    12    5    8 ar
    13    6   14 1
    14    6   15 1
    15    6   16 1
    16    7    9 ar
    17    7   17 1
    18    8   10 ar
    19    8   18 1
    20    9   11 ar
    21    9   22 1
    22   10   11 ar
    23   10   23 1
    24   11   24 1
