@<TRIPOS>MOLECULE
DB00917
   57    57     0     0     0
SMALL
USER_CHARGES

@<TRIPOS>ATOM
      1 O1          4.5941    2.5552    0.2402 O.3       1 <0>        -0.3908
      2 O2          4.4735   -1.9293   -1.1544 O.2       1 <0>        -0.2970
      3 O3         -0.0819    4.5645    0.9489 O.3       1 <0>        -0.3878
      4 O4         -2.3284   -1.3466    2.8329 O.3       1 <0>        -0.4806
      5 O5         -0.1164   -1.0438    2.4283 O.2       1 <0>        -0.2510
      6 C1          2.7747    1.0489   -0.2950 C.3       1 <0>         0.0134
      7 C2          2.6553   -0.4725   -0.4724 C.3       1 <0>         0.0296
      8 C3          4.1199    1.2304    0.4209 C.3       1 <0>         0.0688
      9 C4          5.0531    0.2306   -0.2584 C.3       1 <0>         0.0327
     10 C5          4.1044   -0.8573   -0.6909 C.2       1 <0>         0.1398
     11 C6          1.7647   -0.8755   -1.6346 C.3       1 <0>        -0.0246
     12 C7          1.6270    1.6312    0.4660 C.2       1 <0>        -0.0793
     13 C8          0.8203    2.5879   -0.0161 C.2       1 <0>        -0.0595
     14 C9          1.6551   -2.3473   -1.9321 C.2       1 <0>        -0.0873
     15 C10        -0.3316    3.1713    0.7532 C.3       1 <0>         0.0734
     16 C11        -1.6700    3.0433    0.0130 C.3       1 <0>        -0.0232
     17 C12        -2.2612    1.6318    0.0738 C.3       1 <0>        -0.0504
     18 C13         0.7955   -3.2207   -1.3858 C.2       1 <0>        -0.0879
     19 C14        -3.5568    1.4808   -0.7301 C.3       1 <0>        -0.0532
     20 C15        -0.2276   -2.8453   -0.3538 C.3       1 <0>        -0.0343
     21 C16        -4.1875    0.0926   -0.6145 C.3       1 <0>        -0.0559
     22 C17        -0.0629   -3.5913    0.9775 C.3       1 <0>        -0.0395
     23 C18        -1.1164   -3.2278    2.0285 C.3       1 <0>         0.0451
     24 C19        -5.4628   -0.0070   -1.4382 C.3       1 <0>        -0.0653
     25 C20        -1.1023   -1.7679    2.4263 C.2       1 <0>         0.3047
     26 H1          2.8409    1.5347   -1.2802 H         1 <0>         0.0375
     27 H2          2.3285   -0.9533    0.4589 H         1 <0>         0.0387
     28 H3          4.0390    1.0229    1.4952 H         1 <0>         0.0603
     29 H4          5.5502    0.6574   -1.1345 H         1 <0>         0.0367
     30 H5          5.7960   -0.1579    0.4426 H         1 <0>         0.0367
     31 H6          0.7639   -0.4476   -1.5033 H         1 <0>         0.0314
     32 H7          2.1407   -0.4054   -2.5547 H         1 <0>         0.0314
     33 H8          1.4489    1.2456    1.4671 H         1 <0>         0.0574
     34 H9          0.9973    2.9822   -1.0139 H         1 <0>         0.0594
     35 H10         5.4801    2.6035    0.6383 H         1 <0>         0.2098
     36 H11         2.3531   -2.7344   -2.6723 H         1 <0>         0.0569
     37 H12        -0.4201    2.7205    1.7486 H         1 <0>         0.0637
     38 H13        -1.5521    3.3571   -1.0327 H         1 <0>         0.0293
     39 H14        -2.3909    3.7474    0.4495 H         1 <0>         0.0293
     40 H15        -2.4540    1.3701    1.1214 H         1 <0>         0.0266
     41 H16        -1.5294    0.9071   -0.3030 H         1 <0>         0.0266
     42 H17         0.8292   -4.2594   -1.7037 H         1 <0>         0.0569
     43 H18        -3.3493    1.6993   -1.7850 H         1 <0>         0.0265
     44 H19        -4.2789    2.2326   -0.3877 H         1 <0>         0.0265
     45 H20        -0.2369   -1.7692   -0.1635 H         1 <0>         0.0307
     46 H21        -1.2162   -3.0822   -0.7678 H         1 <0>         0.0307
     47 H22         0.7433    4.6479    1.4573 H         1 <0>         0.2102
     48 H23        -3.4753   -0.6677   -0.9556 H         1 <0>         0.0263
     49 H24        -4.4161   -0.1248    0.4352 H         1 <0>         0.0263
     50 H25        -0.1090   -4.6726    0.7970 H         1 <0>         0.0273
     51 H26         0.9357   -3.3824    1.3828 H         1 <0>         0.0273
     52 H27        -2.1082   -3.4720    1.6302 H         1 <0>         0.0378
     53 H28        -0.9589   -3.8212    2.9355 H         1 <0>         0.0378
     54 H29        -6.2063    0.7215   -1.0999 H         1 <0>         0.0230
     55 H30        -5.2601    0.1749   -2.4985 H         1 <0>         0.0230
     56 H31        -5.8981   -1.0065   -1.3421 H         1 <0>         0.0230
     57 H32        -2.3187   -0.4044    3.1061 H         1 <0>         0.2951
@<TRIPOS>BOND
     1    1    8 1
     2    1   35 1
     3    2   10 2
     4    3   15 1
     5    3   47 1
     6    4   25 1
     7    4   57 1
     8    5   25 2
     9    6    7 1
    10    6    8 1
    11    6   12 1
    12    6   26 1
    13    7   10 1
    14    7   11 1
    15    7   27 1
    16    8    9 1
    17    8   28 1
    18    9   10 1
    19    9   29 1
    20    9   30 1
    21   11   14 1
    22   11   31 1
    23   11   32 1
    24   12   13 2
    25   12   33 1
    26   13   15 1
    27   13   34 1
    28   14   18 2
    29   14   36 1
    30   15   16 1
    31   15   37 1
    32   16   17 1
    33   16   38 1
    34   16   39 1
    35   17   19 1
    36   17   40 1
    37   17   41 1
    38   18   20 1
    39   18   42 1
    40   19   21 1
    41   19   43 1
    42   19   44 1
    43   20   22 1
    44   20   45 1
    45   20   46 1
    46   21   24 1
    47   21   48 1
    48   21   49 1
    49   22   23 1
    50   22   50 1
    51   22   51 1
    52   23   25 1
    53   23   52 1
    54   23   53 1
    55   24   54 1
    56   24   55 1
    57   24   56 1
