@<TRIPOS>MOLECULE
DB00559
   68    71     0     0     0
SMALL
USER_CHARGES

@<TRIPOS>ATOM
      1 S1          0.1802    2.1952   -3.4724 S.o2      1 <0>         0.0736
      2 O1          0.7842    1.8969   -4.7657 O.2       1 <0>        -0.1499
      3 O2         -0.4026    3.5139   -3.2569 O.2       1 <0>        -0.1499
      4 O3         -0.4623   -1.2501   -1.4700 O.3       1 <0>        -0.4435
      5 O4         -1.5262   -1.2684    1.0925 O.3       1 <0>        -0.4715
      6 O5          0.6159   -3.3747   -0.0117 O.3       1 <0>        -0.4914
      7 O6         -2.2973   -3.5787    2.4713 O.3       1 <0>        -0.3917
      8 N1         -0.9982    0.9829   -3.1402 N.pl3     1 <0>        -0.1963
      9 N2         -2.2562    1.9205   -1.3776 N.ar      1 <0>        -0.2044
     10 N3         -2.5167    0.7915    0.7354 N.ar      1 <0>        -0.1866
     11 N4         -3.7359    3.9222   -0.4904 N.ar      1 <0>        -0.2331
     12 N5         -3.9966    2.7926    1.6222 N.ar      1 <0>        -0.2331
     13 C1          4.3795    1.2024    0.8013 C.3       1 <0>        -0.0127
     14 C2          3.3164    1.4545   -0.2808 C.ar      1 <0>        -0.0419
     15 C3          5.7696    1.6131    0.2693 C.3       1 <0>        -0.0560
     16 C4          4.3999   -0.2967    1.1705 C.3       1 <0>        -0.0560
     17 C5          4.1401    1.9910    2.1087 C.3       1 <0>        -0.0560
     18 C6          3.4079    0.8063   -1.5126 C.ar      1 <0>        -0.0562
     19 C7          2.2600    2.3301   -0.0304 C.ar      1 <0>        -0.0562
     20 C8          1.3867    1.9096   -2.2433 C.ar      1 <0>         0.1086
     21 C9          2.4432    1.0338   -2.4937 C.ar      1 <0>        -0.0348
     22 C10         1.2951    2.5577   -1.0117 C.ar      1 <0>        -0.0348
     23 C11        -1.5050    0.8816   -1.7981 C.ar      1 <0>         0.1883
     24 C12        -1.2201   -0.2224   -1.0209 C.ar      1 <0>         0.2307
     25 C13        -1.7576   -0.2128    0.2501 C.ar      1 <0>         0.2642
     26 C14        -2.7233    1.8115   -0.1193 C.ar      1 <0>         0.2027
     27 C15        -1.0377   -2.5129   -1.5139 C.ar      1 <0>         0.1702
     28 C16        -3.5293    2.9020    0.3639 C.ar      1 <0>         0.1978
     29 C17        -2.1100   -1.1936    2.3877 C.3       1 <0>         0.1143
     30 C18        -0.4915   -3.5668   -0.7815 C.ar      1 <0>         0.1621
     31 C19        -2.1719   -2.7225   -2.2981 C.ar      1 <0>        -0.0157
     32 C20        -1.0796   -4.8306   -0.8334 C.ar      1 <0>        -0.0163
     33 C21        -1.7654   -2.4530    3.1591 C.3       1 <0>         0.0783
     34 C22        -2.7600   -3.9864   -2.3501 C.ar      1 <0>        -0.0581
     35 C23        -2.2138   -5.0404   -1.6178 C.ar      1 <0>        -0.0581
     36 C24        -4.4952    4.9264   -0.0052 C.ar      1 <0>         0.0315
     37 C25        -4.7478    3.8314    2.0426 C.ar      1 <0>         0.0315
     38 C26        -5.0329    4.9357    1.2655 C.ar      1 <0>        -0.0254
     39 C27         1.1106   -4.5039    0.7054 C.3       1 <0>         0.0790
     40 H1          5.7813    2.6677   -0.0309 H         1 <0>         0.0238
     41 H2          6.0726    1.0202   -0.6006 H         1 <0>         0.0238
     42 H3          6.5423    1.4758    1.0349 H         1 <0>         0.0238
     43 H4          4.6754   -0.9298    0.3200 H         1 <0>         0.0238
     44 H5          3.4162   -0.6298    1.5230 H         1 <0>         0.0238
     45 H6          5.1253   -0.4979    1.9674 H         1 <0>         0.0238
     46 H7          3.1854    1.7237    2.5769 H         1 <0>         0.0238
     47 H8          4.1537    3.0742    1.9398 H         1 <0>         0.0238
     48 H9          4.9245    1.7757    2.8448 H         1 <0>         0.0238
     49 H10         4.2187    0.1180   -1.7326 H         1 <0>         0.0621
     50 H11         2.1401    2.8586    0.9086 H         1 <0>         0.0621
     51 H12         2.5303    0.5118   -3.4425 H         1 <0>         0.0637
     52 H13         0.4806    3.2430   -0.7944 H         1 <0>         0.0637
     53 H14        -0.8230    0.0735   -3.5884 H         1 <0>         0.1754
     54 H15        -3.2006   -1.1216    2.2916 H         1 <0>         0.0720
     55 H16        -1.7234   -0.3220    2.9289 H         1 <0>         0.0720
     56 H17        -2.6051   -1.9154   -2.8826 H         1 <0>         0.0655
     57 H18        -0.7112   -5.6945   -0.2913 H         1 <0>         0.0655
     58 H19        -2.1891   -2.4210    4.1670 H         1 <0>         0.0591
     59 H20        -0.6802   -2.5818    3.2212 H         1 <0>         0.0591
     60 H21        -3.6419   -4.1503   -2.9623 H         1 <0>         0.0619
     61 H22        -2.6726   -6.0241   -1.6591 H         1 <0>         0.0619
     62 H23        -4.6648    5.7513   -0.6890 H         1 <0>         0.0831
     63 H24        -5.1272    3.7491    3.0556 H         1 <0>         0.0831
     64 H25        -5.6386    5.7550    1.6290 H         1 <0>         0.0648
     65 H26         0.3852   -4.8627    1.4435 H         1 <0>         0.0660
     66 H27         1.4447   -5.2975    0.0284 H         1 <0>         0.0660
     67 H28         1.9918   -4.1698    1.2631 H         1 <0>         0.0660
     68 H29        -2.0467   -4.3684    2.9805 H         1 <0>         0.2095
@<TRIPOS>BOND
     1    1    2 2
     2    1    3 2
     3    1    8 1
     4    1   20 1
     5    4   24 1
     6    4   27 1
     7    5   25 1
     8    5   29 1
     9    6   30 1
    10    6   39 1
    11    7   33 1
    12    7   68 1
    13    8   23 1
    14    8   53 1
    15    9   23 ar
    16    9   26 ar
    17   10   25 ar
    18   10   26 ar
    19   11   28 ar
    20   11   36 ar
    21   12   28 ar
    22   12   37 ar
    23   13   14 1
    24   13   15 1
    25   13   16 1
    26   13   17 1
    27   14   18 ar
    28   14   19 ar
    29   15   40 1
    30   15   41 1
    31   15   42 1
    32   16   43 1
    33   16   44 1
    34   16   45 1
    35   17   46 1
    36   17   47 1
    37   17   48 1
    38   18   21 ar
    39   18   49 1
    40   19   22 ar
    41   19   50 1
    42   20   21 ar
    43   20   22 ar
    44   21   51 1
    45   22   52 1
    46   23   24 ar
    47   24   25 ar
    48   26   28 1
    49   27   30 ar
    50   27   31 ar
    51   29   33 1
    52   29   54 1
    53   29   55 1
    54   30   32 ar
    55   31   34 ar
    56   31   56 1
    57   32   35 ar
    58   32   57 1
    59   33   58 1
    60   33   59 1
    61   34   35 ar
    62   34   60 1
    63   35   61 1
    64   36   38 ar
    65   36   62 1
    66   37   38 ar
    67   37   63 1
    68   38   64 1
    69   39   65 1
    70   39   66 1
    71   39   67 1
