@<TRIPOS>MOLECULE
DB00293
   54    56     0     0     0
SMALL
USER_CHARGES

@<TRIPOS>ATOM
      1 S1         -0.4843    1.4818    1.3111 S.3       1 <0>        -0.0691
      2 O1         -5.7502   -3.6836    0.4116 O.3       1 <0>        -0.4793
      3 O2         -2.8081   -0.1306    2.2995 O.2       1 <0>        -0.2696
      4 O3         -4.2903   -2.9767   -1.1757 O.2       1 <0>        -0.2489
      5 O4          3.2782   -2.3224   -1.8165 O.2       1 <0>        -0.2651
      6 O5         -8.3483    1.1279   -1.2231 O.3       1 <0>        -0.4806
      7 O6         -8.3316    0.8710    1.0310 O.2       1 <0>        -0.2510
      8 N1          1.4858    2.7857   -0.0167 N.pl3     1 <0>        -0.3233
      9 N2         -3.5921   -0.8058    0.2487 N.am      1 <0>        -0.2979
     10 N3          6.3821   -1.2280    0.4722 N.pl3     1 <0>        -0.3430
     11 N4          5.2033   -2.9188   -0.7250 N.2       1 <0>        -0.1958
     12 C1          2.5523    2.7126   -0.9914 C.3       1 <0>         0.0374
     13 C2         -4.6890   -1.5823    0.7809 C.3       1 <0>         0.1210
     14 C3          3.5592    1.6819   -0.6042 C.ar      1 <0>        -0.0293
     15 C4         -5.9641   -0.7522    0.9723 C.3       1 <0>        -0.0140
     16 C5          0.3586    1.9782   -0.0945 C.2       1 <0>         0.0687
     17 C6          4.3593   -0.5923   -0.6715 C.ar      1 <0>         0.0648
     18 C7          3.4100    0.3651   -1.0392 C.ar      1 <0>        -0.0427
     19 C8          5.4562   -0.2414    0.1276 C.ar      1 <0>         0.0530
     20 C9         -6.5706   -0.1549   -0.3039 C.3       1 <0>         0.0470
     21 C10         4.6482    2.0392    0.1917 C.ar      1 <0>        -0.0551
     22 C11        -1.6241    0.6033    0.3829 C.2       1 <0>         0.0756
     23 C12         5.5949    1.0809    0.5571 C.ar      1 <0>        -0.0373
     24 C13        -2.6742   -0.0944    1.0515 C.2       1 <0>         0.2514
     25 C14         1.6426    3.7507    1.0736 C.3       1 <0>         0.0015
     26 C15        -0.2175    1.4841   -1.2442 C.2       1 <0>        -0.0326
     27 C16        -1.3660    0.6876   -0.9674 C.2       1 <0>        -0.0407
     28 C17        -4.8740   -2.7891   -0.1161 C.2       1 <0>         0.3253
     29 C18         4.2360   -2.0095   -1.1160 C.2       1 <0>         0.2809
     30 C19         6.1901   -2.5124    0.0197 C.2       1 <0>         0.1083
     31 C20        -7.8192    0.6649   -0.0602 C.2       1 <0>         0.3048
     32 C21         7.2251   -3.5319    0.4273 C.3       1 <0>        -0.0063
     33 H1          3.0477    3.6872   -1.0981 H         1 <0>         0.0513
     34 H2          2.1781    2.5071   -2.0018 H         1 <0>         0.0513
     35 H3         -4.3715   -1.9678    1.7578 H         1 <0>         0.0614
     36 H4         -6.7263   -1.3750    1.4585 H         1 <0>         0.0294
     37 H5         -5.7525    0.0661    1.6733 H         1 <0>         0.0294
     38 H6          2.5625    0.0925   -1.6619 H         1 <0>         0.0629
     39 H7         -5.8375    0.4988   -0.7893 H         1 <0>         0.0378
     40 H8         -6.8350   -0.9621   -0.9958 H         1 <0>         0.0378
     41 H9         -3.5029   -0.7694   -0.7613 H         1 <0>         0.1499
     42 H10         4.7720    3.0629    0.5353 H         1 <0>         0.0621
     43 H11         6.4379    1.3740    1.1777 H         1 <0>         0.0638
     44 H12         2.3871    4.5170    0.8314 H         1 <0>         0.0428
     45 H13         1.9727    3.2455    1.9875 H         1 <0>         0.0428
     46 H14         0.7029    4.2777    1.2737 H         1 <0>         0.0428
     47 H15         0.1418    1.6774   -2.2465 H         1 <0>         0.0642
     48 H16        -1.9547    0.2140   -1.7422 H         1 <0>         0.0631
     49 H17         7.1741   -0.9730    1.0501 H         1 <0>         0.1670
     50 H18         8.2021   -3.2318    0.0380 H         1 <0>         0.0307
     51 H19         6.9724   -4.5210    0.0354 H         1 <0>         0.0307
     52 H20         7.2759   -3.5820    1.5187 H         1 <0>         0.0307
     53 H21        -5.8571   -4.4721   -0.1621 H         1 <0>         0.2951
     54 H22        -9.1680    1.6449   -1.0712 H         1 <0>         0.2951
@<TRIPOS>BOND
     1    1   16 1
     2    1   22 1
     3    2   28 1
     4    2   53 1
     5    3   24 2
     6    4   28 2
     7    5   29 2
     8    6   31 1
     9    6   54 1
    10    7   31 2
    11    8   12 1
    12    8   16 1
    13    8   25 1
    14    9   13 1
    15    9   24 am
    16    9   41 1
    17   10   19 1
    18   10   30 2
    19   10   49 1
    20   11   29 1
    21   11   30 1
    22   12   14 1
    23   12   33 1
    24   12   34 1
    25   13   15 1
    26   13   28 1
    27   13   35 1
    28   14   18 ar
    29   14   21 ar
    30   15   20 1
    31   15   36 1
    32   15   37 1
    33   16   26 2
    34   17   18 ar
    35   17   19 ar
    36   17   29 1
    37   18   38 1
    38   19   23 ar
    39   20   31 1
    40   20   39 1
    41   20   40 1
    42   21   23 ar
    43   21   42 1
    44   22   24 1
    45   22   27 2
    46   23   43 1
    47   25   44 1
    48   25   45 1
    49   25   46 1
    50   26   27 1
    51   26   47 1
    52   27   48 1
    53   30   32 1
    54   32   50 1
    55   32   51 1
    56   32   52 1
