@<TRIPOS>MOLECULE
DB00738
   49    50     0     0     0
SMALL
USER_CHARGES

@<TRIPOS>ATOM
      1 O1         -3.6582    1.5700    0.4021 O.3       1 <0>        -0.4920
      2 O2          3.6721    1.6512    0.3305 O.3       1 <0>        -0.4920
      3 N1         -9.1846   -1.2023   -1.4375 N.pl3     1 <0>        -0.2466
      4 N2          8.6354   -2.4497   -0.0647 N.pl3     1 <0>        -0.2466
      5 N3         -8.4726   -2.6103    0.2863 N.2       1 <0>        -0.0994
      6 N4          9.1545   -0.8814   -1.7175 N.2       1 <0>        -0.0994
      7 C1          0.0302    0.8957    0.8643 C.3       1 <0>        -0.0469
      8 C2         -1.2467    1.5962    0.3906 C.3       1 <0>        -0.0185
      9 C3          1.2783    1.6357    0.3866 C.3       1 <0>        -0.0185
     10 C4         -2.5059    0.8935    0.8834 C.3       1 <0>         0.0896
     11 C5          2.5529    0.9233    0.8166 C.3       1 <0>         0.0896
     12 C6         -4.7797    0.8099    0.1916 C.ar      1 <0>         0.1205
     13 C7          4.8073    0.9321    0.0599 C.ar      1 <0>         0.1205
     14 C8         -5.0098   -0.3242    0.9703 C.ar      1 <0>        -0.0191
     15 C9          5.6815    1.3591   -0.9398 C.ar      1 <0>        -0.0191
     16 C10        -5.6918    1.1722   -0.7998 C.ar      1 <0>        -0.0191
     17 C11         5.0896   -0.2253    0.7857 C.ar      1 <0>        -0.0191
     18 C12        -7.0637   -0.7343   -0.2337 C.ar      1 <0>         0.0649
     19 C13         7.1200   -0.5287   -0.4879 C.ar      1 <0>         0.0649
     20 C14        -6.1518   -1.0963    0.7576 C.ar      1 <0>        -0.0434
     21 C15         6.8378    0.6287   -1.2137 C.ar      1 <0>        -0.0434
     22 C16        -6.8337    0.4000   -1.0125 C.ar      1 <0>        -0.0434
     23 C17         6.2459   -0.9556    0.5117 C.ar      1 <0>        -0.0434
     24 C18        -8.2549   -1.5387   -0.4553 C.2       1 <0>         0.3081
     25 C19         8.3259   -1.2901   -0.7729 C.2       1 <0>         0.3081
     26 H1          0.0337    0.8388    1.9596 H         1 <0>         0.0267
     27 H2          0.0426   -0.1336    0.4861 H         1 <0>         0.0267
     28 H3         -1.2574    2.6373    0.7367 H         1 <0>         0.0298
     29 H4         -1.2650    1.6454   -0.7054 H         1 <0>         0.0298
     30 H5          1.2676    1.7299   -0.7066 H         1 <0>         0.0298
     31 H6          1.2845    2.6614    0.7759 H         1 <0>         0.0298
     32 H7         -2.4663   -0.1425    0.5217 H         1 <0>         0.0696
     33 H8         -2.5257    0.8913    1.9795 H         1 <0>         0.0696
     34 H9          2.5227   -0.0944    0.4061 H         1 <0>         0.0696
     35 H10         2.6045    0.8729    1.9104 H         1 <0>         0.0696
     36 H11        -4.3400   -0.6243    1.7707 H         1 <0>         0.0654
     37 H12         5.4664    2.2601   -1.5077 H         1 <0>         0.0654
     38 H13        -5.5171    2.0551   -1.4087 H         1 <0>         0.0654
     39 H14         4.4500   -0.5757    1.5904 H         1 <0>         0.0654
     40 H15        -6.3040   -1.9698    1.3857 H         1 <0>         0.0627
     41 H16         7.4970    0.9891   -1.9986 H         1 <0>         0.0627
     42 H17        -7.5093    0.7263   -1.7953 H         1 <0>         0.0627
     43 H18         6.4208   -1.8435    1.1094 H         1 <0>         0.0627
     44 H19       -10.0106   -1.7755   -1.5759 H         1 <0>         0.2884
     45 H20        -9.0957   -0.3999   -2.0482 H         1 <0>         0.2884
     46 H21         9.4828   -2.9663   -0.2770 H         1 <0>         0.2884
     47 H22         8.0572   -2.8325    0.6728 H         1 <0>         0.2884
     48 H23        -9.3545   -3.0382   -0.0169 H         1 <0>         0.3633
     49 H24         9.9380   -1.5421   -1.7665 H         1 <0>         0.3633
@<TRIPOS>BOND
     1    1   10 1
     2    1   12 1
     3    2   11 1
     4    2   13 1
     5    3   24 1
     6    3   44 1
     7    3   45 1
     8    4   25 1
     9    4   46 1
    10    4   47 1
    11    5   24 2
    12    5   48 1
    13    6   25 2
    14    6   49 1
    15    7    8 1
    16    7    9 1
    17    7   26 1
    18    7   27 1
    19    8   10 1
    20    8   28 1
    21    8   29 1
    22    9   11 1
    23    9   30 1
    24    9   31 1
    25   10   32 1
    26   10   33 1
    27   11   34 1
    28   11   35 1
    29   12   14 ar
    30   12   16 ar
    31   13   15 ar
    32   13   17 ar
    33   14   20 ar
    34   14   36 1
    35   15   21 ar
    36   15   37 1
    37   16   22 ar
    38   16   38 1
    39   17   23 ar
    40   17   39 1
    41   18   20 ar
    42   18   22 ar
    43   18   24 1
    44   19   21 ar
    45   19   23 ar
    46   19   25 1
    47   20   40 1
    48   21   41 1
    49   22   42 1
    50   23   43 1
