@<TRIPOS>MOLECULE
DB00714
   37    40     0     0     0
SMALL
USER_CHARGES

@<TRIPOS>ATOM
      1 O1          3.4319    1.7586   -0.5633 O.3       1 <0>        -0.5029
      2 O2          5.3608   -0.1137   -0.4728 O.3       1 <0>        -0.5033
      3 N1         -2.3956   -1.1863    0.1982 N.3       1 <0>        -0.2978
      4 C1         -0.9989   -0.8057   -0.1385 C.3       1 <0>         0.0401
      5 C2         -0.7201    0.6868    0.0689 C.ar      1 <0>        -0.0189
      6 C3          0.0243   -1.6218    0.6839 C.3       1 <0>        -0.0072
      7 C4         -1.7874    1.6051    0.1119 C.ar      1 <0>        -0.0409
      8 C5         -3.3380   -0.2887   -0.4889 C.3       1 <0>         0.0032
      9 C6         -3.2122    1.1277    0.0641 C.3       1 <0>        -0.0145
     10 C7          0.6212    1.1399    0.1526 C.ar      1 <0>        -0.0091
     11 C8          1.4436   -1.2031    0.3716 C.ar      1 <0>        -0.0341
     12 C9          1.7269    0.1554    0.1119 C.ar      1 <0>         0.0308
     13 C10        -2.6986   -2.5725   -0.1736 C.3       1 <0>        -0.0122
     14 C11        -1.5269    2.9698    0.2683 C.ar      1 <0>        -0.0582
     15 C12         0.8437    2.5202    0.3068 C.ar      1 <0>        -0.0536
     16 C13         2.4702   -2.1597    0.3840 C.ar      1 <0>        -0.0543
     17 C14         3.0589    0.5017   -0.1768 C.ar      1 <0>         0.1664
     18 C15        -0.2175    3.4245    0.3620 C.ar      1 <0>        -0.0609
     19 C16         4.0746   -0.4589   -0.1794 C.ar      1 <0>         0.1589
     20 C17         3.7817   -1.7872    0.1065 C.ar      1 <0>        -0.0162
     21 H1         -0.8264   -0.9980   -1.2089 H         1 <0>         0.0515
     22 H2         -0.0763   -2.6893    0.4598 H         1 <0>         0.0332
     23 H3         -0.1448   -1.4901    1.7609 H         1 <0>         0.0332
     24 H4         -4.3725   -0.6178   -0.3290 H         1 <0>         0.0430
     25 H5         -3.1620   -0.2939   -1.5733 H         1 <0>         0.0430
     26 H6         -3.6196    1.1629    1.0827 H         1 <0>         0.0326
     27 H7         -3.8115    1.8031   -0.5580 H         1 <0>         0.0326
     28 H8         -2.1283   -3.2833    0.4312 H         1 <0>         0.0391
     29 H9         -2.4991   -2.7697   -1.2330 H         1 <0>         0.0391
     30 H10        -3.7524   -2.8028    0.0232 H         1 <0>         0.0391
     31 H11        -2.3448    3.6834    0.3264 H         1 <0>         0.0620
     32 H12         1.8276    2.9446    0.4712 H         1 <0>         0.0624
     33 H13         2.2498   -3.2011    0.6048 H         1 <0>         0.0622
     34 H14        -0.0202    4.4836    0.5015 H         1 <0>         0.0618
     35 H15         4.5673   -2.5376    0.1094 H         1 <0>         0.0655
     36 H16         2.7833    2.0709   -1.2177 H         1 <0>         0.2923
     37 H17         5.3876    0.8429   -0.6486 H         1 <0>         0.2923
@<TRIPOS>BOND
     1    1   17 1
     2    1   36 1
     3    2   19 1
     4    2   37 1
     5    3    4 1
     6    3    8 1
     7    3   13 1
     8    4    5 1
     9    4    6 1
    10    4   21 1
    11    5    7 ar
    12    5   10 ar
    13    6   11 1
    14    6   22 1
    15    6   23 1
    16    7    9 1
    17    7   14 ar
    18    8    9 1
    19    8   24 1
    20    8   25 1
    21    9   26 1
    22    9   27 1
    23   10   12 1
    24   10   15 ar
    25   11   12 ar
    26   11   16 ar
    27   12   17 ar
    28   13   28 1
    29   13   29 1
    30   13   30 1
    31   14   18 ar
    32   14   31 1
    33   15   18 ar
    34   15   32 1
    35   16   20 ar
    36   16   33 1
    37   17   19 ar
    38   18   34 1
    39   19   20 ar
    40   20   35 1
