@<TRIPOS>MOLECULE
DB00327
   40    44     0     0     0
SMALL
USER_CHARGES

@<TRIPOS>ATOM
      1 O1         -2.5536    0.0987   -1.3878 O.3       1 <0>        -0.4765
      2 O2         -3.4991    2.1416    0.1290 O.2       1 <0>        -0.2934
      3 O3         -3.9567   -2.3565   -0.6613 O.3       1 <0>        -0.5033
      4 N1          2.5751    0.1683   -0.4665 N.3       1 <0>        -0.3018
      5 C1         -0.2809    0.6227   -0.7447 C.3       1 <0>         0.0488
      6 C2          0.5871    1.3774    0.2685 C.3       1 <0>        -0.0111
      7 C3          1.7151    0.3989    0.7198 C.3       1 <0>         0.0179
      8 C4         -1.6487    1.2146   -1.1191 C.3       1 <0>         0.1677
      9 C5          0.5859    0.2900   -1.9780 C.3       1 <0>        -0.0263
     10 C6         -0.7889   -0.6358   -0.1356 C.ar      1 <0>         0.0116
     11 C7         -0.2337    1.9719    1.4197 C.3       1 <0>        -0.0410
     12 C8          1.1532   -0.9035    1.3917 C.3       1 <0>        -0.0113
     13 C9          1.8829   -0.4493   -1.6025 C.3       1 <0>        -0.0002
     14 C10        -0.1377   -1.4103    0.8048 C.ar      1 <0>        -0.0383
     15 C11        -1.3422    2.8611    0.8678 C.3       1 <0>         0.0099
     16 C12        -2.2780    2.0593   -0.0083 C.2       1 <0>         0.1744
     17 C13        -2.0608   -0.9111   -0.5947 C.ar      1 <0>         0.1668
     18 C14         3.8195   -0.5276   -0.1570 C.3       1 <0>        -0.0125
     19 C15        -0.7875   -2.5731    1.2192 C.ar      1 <0>        -0.0546
     20 C16        -2.7139   -2.0594   -0.2100 C.ar      1 <0>         0.1588
     21 C17        -2.0583   -2.9019    0.6994 C.ar      1 <0>        -0.0162
     22 H1          1.0559    2.2346   -0.2397 H         1 <0>         0.0326
     23 H2          2.3288    0.9196    1.4672 H         1 <0>         0.0469
     24 H3         -1.5900    1.8436   -2.0147 H         1 <0>         0.0823
     25 H4          0.8484    1.2261   -2.4892 H         1 <0>         0.0287
     26 H5          0.0324   -0.3164   -2.7069 H         1 <0>         0.0287
     27 H6          0.4213    2.5668    2.0671 H         1 <0>         0.0273
     28 H7         -0.6721    1.1887    2.0482 H         1 <0>         0.0273
     29 H8          0.9562   -0.6688    2.4464 H         1 <0>         0.0329
     30 H9          1.8972   -1.7061    1.3907 H         1 <0>         0.0329
     31 H10         1.6620   -1.5043   -1.3985 H         1 <0>         0.0427
     32 H11         2.5393   -0.4383   -2.4818 H         1 <0>         0.0427
     33 H12        -0.9352    3.6873    0.2752 H         1 <0>         0.0343
     34 H13        -1.9160    3.2893    1.6968 H         1 <0>         0.0343
     35 H14         4.4983   -0.4873   -1.0164 H         1 <0>         0.0391
     36 H15         3.6664   -1.5812    0.0974 H         1 <0>         0.0391
     37 H16         4.3427   -0.0420    0.6740 H         1 <0>         0.0391
     38 H17        -0.3299   -3.2243    1.9590 H         1 <0>         0.0622
     39 H18        -2.5457   -3.8129    1.0394 H         1 <0>         0.0655
     40 H19        -4.2388   -1.6505   -1.2687 H         1 <0>         0.2923
@<TRIPOS>BOND
     1    1    8 1
     2    1   17 1
     3    2   16 2
     4    3   20 1
     5    3   40 1
     6    4    7 1
     7    4   13 1
     8    4   18 1
     9    5    6 1
    10    5    8 1
    11    5    9 1
    12    5   10 1
    13    6    7 1
    14    6   11 1
    15    6   22 1
    16    7   12 1
    17    7   23 1
    18    8   16 1
    19    8   24 1
    20    9   13 1
    21    9   25 1
    22    9   26 1
    23   10   14 ar
    24   10   17 ar
    25   11   15 1
    26   11   27 1
    27   11   28 1
    28   12   14 1
    29   12   29 1
    30   12   30 1
    31   13   31 1
    32   13   32 1
    33   14   19 ar
    34   15   16 1
    35   15   33 1
    36   15   34 1
    37   17   20 ar
    38   18   35 1
    39   18   36 1
    40   18   37 1
    41   19   21 ar
    42   19   38 1
    43   20   21 ar
    44   21   39 1
