@<TRIPOS>MOLECULE
DB00642
   52    54     0     0     0
SMALL
USER_CHARGES

@<TRIPOS>ATOM
      1 O1         -1.4669   -0.1075   -1.7230 O.2       1 <0>        -0.2650
      2 O2          2.0596    1.2603    2.6263 O.2       1 <0>        -0.2702
      3 O3          6.3768    1.7314    0.0673 O.3       1 <0>        -0.4793
      4 O4          4.6404    2.4809   -1.1870 O.2       1 <0>        -0.2489
      5 O5          4.3164   -3.2481   -1.8123 O.3       1 <0>        -0.4806
      6 O6          4.8510   -3.3043    0.3919 O.2       1 <0>        -0.2510
      7 N1         -5.2213   -1.4077    0.5517 N.pl3     1 <0>        -0.3468
      8 N2          2.8187    1.3570    0.4369 N.am      1 <0>        -0.2983
      9 N3         -3.3906   -2.9694    0.4049 N.pl3     1 <0>        -0.3136
     10 N4         -1.4571   -2.2248   -0.7980 N.2       1 <0>        -0.1769
     11 N5         -1.5624   -4.3627    0.1869 N.pl3     1 <0>        -0.3289
     12 C1         -4.1140    1.6100   -1.2705 C.3       1 <0>        -0.0215
     13 C2         -4.3028    0.2780   -0.6023 C.2       1 <0>        -0.0153
     14 C3         -3.4936    2.6769   -0.3455 C.3       1 <0>        -0.0236
     15 C4         -3.3780   -0.7910   -0.5543 C.2       1 <0>         0.0862
     16 C5         -2.1109    2.3578    0.1127 C.ar      1 <0>        -0.0470
     17 C6         -3.9812   -1.7932    0.1582 C.2       1 <0>         0.1239
     18 C7         -5.4323   -0.1282    0.0880 C.2       1 <0>         0.0074
     19 C8          4.1941    1.0329    0.7196 C.3       1 <0>         0.1209
     20 C9          4.4614   -0.4770    0.7056 C.3       1 <0>        -0.0140
     21 C10        -1.9161    1.6368    1.2909 C.ar      1 <0>        -0.0578
     22 C11        -1.0126    2.7811   -0.6358 C.ar      1 <0>        -0.0578
     23 C12         0.4754    1.7623    0.9720 C.ar      1 <0>         0.0367
     24 C13        -2.0346   -0.9828   -1.0801 C.2       1 <0>         0.2840
     25 C14         4.2236   -1.1855   -0.6341 C.3       1 <0>         0.0470
     26 C15        -0.6230    1.3391    1.7205 C.ar      1 <0>        -0.0494
     27 C16         0.2806    2.4834   -0.2060 C.ar      1 <0>        -0.0494
     28 C17         1.8526    1.4448    1.4298 C.2       1 <0>         0.2447
     29 C18        -2.1072   -3.1375   -0.1034 C.2       1 <0>         0.1951
     30 C19         5.0578    1.8157   -0.2477 C.2       1 <0>         0.3253
     31 C20         4.4893   -2.6748   -0.5923 C.2       1 <0>         0.3048
     32 H1         -3.5008    1.4903   -2.1718 H         1 <0>         0.0317
     33 H2         -5.0908    1.9744   -1.6139 H         1 <0>         0.0317
     34 H3         -3.4889    3.6392   -0.8740 H         1 <0>         0.0316
     35 H4         -4.1421    2.8306    0.5276 H         1 <0>         0.0316
     36 H5         -6.3664    0.3764    0.2920 H         1 <0>         0.0810
     37 H6          4.4205    1.4183    1.7221 H         1 <0>         0.0614
     38 H7          3.8336   -0.9558    1.4690 H         1 <0>         0.0294
     39 H8          5.4995   -0.6590    1.0132 H         1 <0>         0.0294
     40 H9         -5.8783   -1.9563    1.0899 H         1 <0>         0.1667
     41 H10        -2.7612    1.3061    1.8889 H         1 <0>         0.0620
     42 H11        -1.1516    3.3469   -1.5531 H         1 <0>         0.0620
     43 H12         2.5576    1.4418   -0.5399 H         1 <0>         0.1498
     44 H13        -3.8366   -3.7128    0.9327 H         1 <0>         0.1699
     45 H14         3.1822   -1.0462   -0.9450 H         1 <0>         0.0378
     46 H15         4.8797   -0.7538   -1.3979 H         1 <0>         0.0378
     47 H16        -0.4921    0.7732    2.6390 H         1 <0>         0.0625
     48 H17         1.1076    2.8576   -0.8020 H         1 <0>         0.0625
     49 H18        -2.0734   -5.0557    0.7227 H         1 <0>         0.1451
     50 H19        -0.6302   -4.6100   -0.1268 H         1 <0>         0.1451
     51 H20         6.9339    2.2517   -0.5499 H         1 <0>         0.2951
     52 H21         4.5051   -4.2105   -1.7936 H         1 <0>         0.2951
@<TRIPOS>BOND
     1    1   24 2
     2    2   28 2
     3    3   30 1
     4    3   51 1
     5    4   30 2
     6    5   31 1
     7    5   52 1
     8    6   31 2
     9    7   17 1
    10    7   18 2
    11    7   40 1
    12    8   19 1
    13    8   28 am
    14    8   43 1
    15    9   17 2
    16    9   29 1
    17    9   44 1
    18   10   24 1
    19   10   29 2
    20   11   29 1
    21   11   49 1
    22   11   50 1
    23   12   13 1
    24   12   14 1
    25   12   32 1
    26   12   33 1
    27   13   15 2
    28   13   18 1
    29   14   16 1
    30   14   34 1
    31   14   35 1
    32   15   17 1
    33   15   24 1
    34   16   21 ar
    35   16   22 ar
    36   18   36 1
    37   19   20 1
    38   19   30 1
    39   19   37 1
    40   20   25 1
    41   20   38 1
    42   20   39 1
    43   21   26 ar
    44   21   41 1
    45   22   27 ar
    46   22   42 1
    47   23   26 ar
    48   23   27 ar
    49   23   28 1
    50   25   31 1
    51   25   45 1
    52   25   46 1
    53   26   47 1
    54   27   48 1
