@<TRIPOS>MOLECULE
DB00605
   42    44     0     0     0
SMALL
USER_CHARGES

@<TRIPOS>ATOM
      1 S1          5.9314    0.4875    0.3819 S.o       1 <0>         0.0507
      2 F1         -1.3205   -4.5766   -0.3993 F         1 <0>        -0.2055
      3 O1         -6.4750   -0.5568    0.7193 O.3       1 <0>        -0.4804
      4 O2         -4.5753   -0.2617    1.9353 O.2       1 <0>        -0.2507
      5 O3          6.5680    0.9032   -0.9151 O.2       1 <0>        -0.2524
      6 C1         -3.0473    0.0644   -0.3779 C.2       1 <0>        -0.0255
      7 C2         -2.0679   -1.0367   -0.3359 C.ar      1 <0>        -0.0106
      8 C3         -2.3675    1.2273   -0.2805 C.2       1 <0>        -0.0384
      9 C4         -0.9363    0.9416   -0.1723 C.2       1 <0>        -0.0136
     10 C5         -0.7703   -0.5124   -0.2099 C.ar      1 <0>        -0.0100
     11 C6         -4.5062   -0.1888   -0.5063 C.3       1 <0>         0.0707
     12 C7          0.0612    1.8265   -0.0582 C.2       1 <0>        -0.0466
     13 C8         -2.2694   -2.4078   -0.4012 C.ar      1 <0>        -0.0184
     14 C9          0.3410   -1.3372   -0.1469 C.ar      1 <0>        -0.0507
     15 C10        -2.9081    2.6164   -0.2755 C.3       1 <0>        -0.0388
     16 C11         1.4927    1.4996    0.0490 C.ar      1 <0>        -0.0244
     17 C12        -1.1545   -3.2482   -0.3385 C.ar      1 <0>         0.1240
     18 C13         0.1392   -2.7173   -0.2124 C.ar      1 <0>        -0.0258
     19 C14        -5.1420   -0.3301    0.8550 C.2       1 <0>         0.3091
     20 C15         2.0586    1.3286    1.3025 C.ar      1 <0>        -0.0535
     21 C16         2.2485    1.3691   -1.1057 C.ar      1 <0>        -0.0535
     22 C17         4.1880    0.8843    0.2509 C.ar      1 <0>         0.0386
     23 C18         3.4149    1.0190    1.4042 C.ar      1 <0>        -0.0454
     24 C19         3.6048    1.0594   -1.0040 C.ar      1 <0>        -0.0454
     25 C20         5.7684   -1.3172    0.3395 C.3       1 <0>         0.0163
     26 H1         -4.7066   -1.0884   -1.0967 H         1 <0>         0.0427
     27 H2         -4.9891    0.6509   -1.0185 H         1 <0>         0.0427
     28 H3         -0.1482    2.8936   -0.0367 H         1 <0>         0.0630
     29 H4         -3.2608   -2.8374   -0.4950 H         1 <0>         0.0652
     30 H5          1.3584   -0.9967   -0.0472 H         1 <0>         0.0625
     31 H6         -4.0002    2.6322   -0.3380 H         1 <0>         0.0278
     32 H7         -2.5207    3.1845   -1.1276 H         1 <0>         0.0278
     33 H8         -2.6286    3.1360    0.6470 H         1 <0>         0.0278
     34 H9          0.9911   -3.3903   -0.1647 H         1 <0>         0.0646
     35 H10         1.4668    1.4306    2.2083 H         1 <0>         0.0624
     36 H11         1.8053    1.5021   -2.0891 H         1 <0>         0.0624
     37 H12         3.8550    0.8852    2.3891 H         1 <0>         0.0629
     38 H13         4.1840    0.9548   -1.9176 H         1 <0>         0.0629
     39 H14        -6.9190   -0.6561    1.5884 H         1 <0>         0.2951
     40 H15         5.2099   -1.6551    1.2158 H         1 <0>         0.0368
     41 H16         6.7693   -1.7550    0.3596 H         1 <0>         0.0368
     42 H17         5.2569   -1.6269   -0.5751 H         1 <0>         0.0368
@<TRIPOS>BOND
     1    1    5 2
     2    1   22 1
     3    1   25 1
     4    2   17 1
     5    3   19 1
     6    3   39 1
     7    4   19 2
     8    6    7 1
     9    6    8 2
    10    6   11 1
    11    7   10 ar
    12    7   13 ar
    13    8    9 1
    14    8   15 1
    15    9   10 1
    16    9   12 2
    17   10   14 ar
    18   11   19 1
    19   11   26 1
    20   11   27 1
    21   12   16 1
    22   12   28 1
    23   13   17 ar
    24   13   29 1
    25   14   18 ar
    26   14   30 1
    27   15   31 1
    28   15   32 1
    29   15   33 1
    30   16   20 ar
    31   16   21 ar
    32   17   18 ar
    33   18   34 1
    34   20   23 ar
    35   20   35 1
    36   21   24 ar
    37   21   36 1
    38   22   23 ar
    39   22   24 ar
    40   23   37 1
    41   24   38 1
    42   25   40 1
    43   25   41 1
    44   25   42 1
