@<TRIPOS>MOLECULE
DB00584
   55    56     0     0     0
SMALL
USER_CHARGES

@<TRIPOS>ATOM
      1 O1          1.1904   -2.2321   -0.4648 O.2       1 <0>        -0.2739
      2 O2          4.1811   -2.4125   -2.8867 O.3       1 <0>        -0.4793
      3 O3          4.7787   -2.5515   -0.6914 O.2       1 <0>        -0.2489
      4 O4          0.2344    1.6156    0.1336 O.3       1 <0>        -0.4638
      5 O5         -0.9155    1.5081    2.1284 O.2       1 <0>        -0.2491
      6 N1          2.8757   -0.6869   -0.1067 N.am      1 <0>        -0.2867
      7 N2         -0.2138   -1.3245    1.5994 N.3       1 <0>        -0.2937
      8 C1          3.4137   -0.7103   -1.4605 C.3       1 <0>         0.1228
      9 C2          4.3090    0.5206   -1.5431 C.3       1 <0>        -0.0225
     10 C3          4.7798    0.7139   -0.1037 C.3       1 <0>        -0.0349
     11 C4          3.5695    0.2984    0.7188 C.3       1 <0>         0.0156
     12 C5          1.7496   -1.4074    0.2598 C.2       1 <0>         0.2330
     13 C6          1.2257   -1.1327    1.6467 C.3       1 <0>         0.0827
     14 C7          4.1984   -1.9798   -1.6023 C.2       1 <0>         0.3255
     15 C8         -0.8320   -0.4223    0.6353 C.3       1 <0>         0.1067
     16 C9         -2.3529   -0.6307    0.5562 C.3       1 <0>        -0.0232
     17 C10         1.8693   -2.0789    2.6403 C.3       1 <0>        -0.0411
     18 C11        -3.0852    0.2610   -0.4565 C.3       1 <0>        -0.0258
     19 C12        -0.5340    0.9993    1.0823 C.2       1 <0>         0.3243
     20 C13        -4.5647   -0.0142   -0.5505 C.ar      1 <0>        -0.0473
     21 C14        -5.0262   -0.9541   -1.4598 C.ar      1 <0>        -0.0586
     22 C15        -5.4400    0.6765    0.2741 C.ar      1 <0>        -0.0586
     23 C16         0.6047    2.9677    0.4215 C.3       1 <0>         0.0897
     24 C17        -6.3948   -1.2090   -1.5467 C.ar      1 <0>        -0.0615
     25 C18        -6.8086    0.4215    0.1874 C.ar      1 <0>        -0.0615
     26 C19        -7.2859   -0.5214   -0.7232 C.ar      1 <0>        -0.0617
     27 C20         1.4467    3.5015   -0.7178 C.3       1 <0>        -0.0306
     28 H1          2.5904   -0.6963   -2.1828 H         1 <0>         0.0616
     29 H2          5.1471    0.4067   -2.2377 H         1 <0>         0.0289
     30 H3          3.7207    1.3884   -1.8597 H         1 <0>         0.0289
     31 H4          5.0975    1.7393    0.1052 H         1 <0>         0.0281
     32 H5          5.6251    0.0478    0.1058 H         1 <0>         0.0281
     33 H6          2.9026    1.1493    0.8794 H         1 <0>         0.0465
     34 H7          3.8533   -0.1215    1.6862 H         1 <0>         0.0465
     35 H8          1.4581   -0.1193    1.9805 H         1 <0>         0.0554
     36 H9         -0.4642   -0.5631   -0.3859 H         1 <0>         0.0576
     37 H10        -0.6195   -1.1871    2.5246 H         1 <0>         0.1234
     38 H11        -2.5479   -1.6822    0.3034 H         1 <0>         0.0289
     39 H12        -2.8000   -0.4721    1.5477 H         1 <0>         0.0289
     40 H13         1.6529   -3.1256    2.3947 H         1 <0>         0.0249
     41 H14         2.9587   -1.9762    2.6527 H         1 <0>         0.0249
     42 H15         1.5042   -1.8911    3.6561 H         1 <0>         0.0249
     43 H16        -2.9365    1.3185   -0.2038 H         1 <0>         0.0314
     44 H17        -2.6322    0.1344   -1.4486 H         1 <0>         0.0314
     45 H18         4.6910   -3.2427   -3.0005 H         1 <0>         0.2951
     46 H19        -4.3400   -1.4966   -2.1040 H         1 <0>         0.0620
     47 H20        -5.0775    1.4109    0.9880 H         1 <0>         0.0620
     48 H21         1.1760    3.0024    1.3557 H         1 <0>         0.0694
     49 H22        -0.3005    3.5761    0.5266 H         1 <0>         0.0694
     50 H23        -6.7666   -1.9436   -2.2551 H         1 <0>         0.0618
     51 H24        -7.5026    0.9564    0.8291 H         1 <0>         0.0618
     52 H25        -8.3515   -0.7202   -0.7905 H         1 <0>         0.0618
     53 H26         0.9102    3.4176   -1.6685 H         1 <0>         0.0262
     54 H27         2.3687    2.9243   -0.8186 H         1 <0>         0.0262
     55 H28         1.7092    4.5498   -0.5499 H         1 <0>         0.0262
@<TRIPOS>BOND
     1    1   12 2
     2    2   14 1
     3    2   45 1
     4    3   14 2
     5    4   19 1
     6    4   23 1
     7    5   19 2
     8    6    8 1
     9    6   11 1
    10    6   12 am
    11    7   13 1
    12    7   15 1
    13    7   37 1
    14    8    9 1
    15    8   14 1
    16    8   28 1
    17    9   10 1
    18    9   29 1
    19    9   30 1
    20   10   11 1
    21   10   31 1
    22   10   32 1
    23   11   33 1
    24   11   34 1
    25   12   13 1
    26   13   17 1
    27   13   35 1
    28   15   16 1
    29   15   19 1
    30   15   36 1
    31   16   18 1
    32   16   38 1
    33   16   39 1
    34   17   40 1
    35   17   41 1
    36   17   42 1
    37   18   20 1
    38   18   43 1
    39   18   44 1
    40   20   21 ar
    41   20   22 ar
    42   21   24 ar
    43   21   46 1
    44   22   25 ar
    45   22   47 1
    46   23   27 1
    47   23   48 1
    48   23   49 1
    49   24   26 ar
    50   24   50 1
    51   25   26 ar
    52   25   51 1
    53   26   52 1
    54   27   53 1
    55   27   54 1
    56   27   55 1
