@<TRIPOS>MOLECULE
DB00430
   66    70     0     0     0
SMALL
USER_CHARGES

@<TRIPOS>ATOM
      1 S1         -1.9687    0.1795    1.5685 S.3       1 <0>        -0.1311
      2 S2         -6.3156    0.1684   -0.4777 S.3       1 <0>        -0.0801
      3 O1         -1.3072   -3.7316   -0.8561 O.2       1 <0>        -0.2731
      4 O2         -4.9173   -4.0558    0.1659 O.3       1 <0>        -0.4763
      5 O3          2.1296   -0.9983    1.7296 O.2       1 <0>        -0.2734
      6 O4         -4.5176   -2.8181   -1.7152 O.2       1 <0>        -0.2437
      7 O5          3.9231   -1.4912   -1.8159 O.2       1 <0>        -0.2700
      8 O6          0.6515    5.6089    0.9315 O.3       1 <0>        -0.5068
      9 O7          5.7702   -0.0236    1.5490 O.2       1 <0>        -0.2870
     10 N1         -2.4274   -2.2471    0.5938 N.am      1 <0>        -0.2490
     11 N2          0.4136   -1.1626    0.1774 N.am      1 <0>        -0.2999
     12 N3          3.6993    0.1887   -0.2148 N.am      1 <0>        -0.2961
     13 N4         -8.8229    0.9287   -1.2140 N.pl3     1 <0>        -0.2233
     14 N5         -8.7908   -0.3284    0.5528 N.2       1 <0>        -0.1015
     15 N6        -10.1069    0.7940   -0.8539 N.2       1 <0>        -0.0435
     16 N7          8.0475   -0.9962   -1.6042 N.pl3     1 <0>        -0.3637
     17 N8        -10.0812    0.0237    0.2268 N.2       1 <0>        -0.0222
     18 C1         -1.6679   -1.6007    1.6486 C.3       1 <0>         0.1042
     19 C2         -0.4055   -2.1169    0.9242 C.3       1 <0>         0.1284
     20 C3         -1.3973   -2.9166    0.0322 C.2       1 <0>         0.2440
     21 C4         -3.7631   -2.0812    0.4150 C.2       1 <0>         0.1228
     22 C5         -4.4384   -1.0764    1.0222 C.2       1 <0>        -0.0211
     23 C6         -3.7610    0.0026    1.8640 C.3       1 <0>         0.0196
     24 C7          1.6327   -0.6763    0.6520 C.2       1 <0>         0.2386
     25 C8         -5.9325   -0.8749    0.9388 C.3       1 <0>         0.0253
     26 C9         -4.4306   -3.0014   -0.5177 C.2       1 <0>         0.3514
     27 C10         2.2670    0.3423   -0.2864 C.3       1 <0>         0.1252
     28 C11         1.8340    1.7525    0.0398 C.ar      1 <0>        -0.0182
     29 C12         2.0853    2.2634    1.3026 C.ar      1 <0>        -0.0529
     30 C13         1.1952    2.5071   -0.9301 C.ar      1 <0>        -0.0529
     31 C14         4.3967   -0.7184   -0.9902 C.2       1 <0>         0.2500
     32 C15        -8.0782    0.2442   -0.3483 C.cat     1 <0>         0.2094
     33 C16         1.6863    3.5656    1.6039 C.ar      1 <0>        -0.0199
     34 C17         0.7964    3.8094   -0.6289 C.ar      1 <0>        -0.0199
     35 C18         5.8490   -0.6857   -0.7382 C.2       1 <0>         0.0991
     36 C19         1.0418    4.3386    0.6383 C.ar      1 <0>         0.1169
     37 C20         6.4574   -0.3217    0.5780 C.2       1 <0>         0.1941
     38 C21         6.6853   -0.9977   -1.7378 C.2       1 <0>         0.0177
     39 C22        -8.4690    1.7161   -2.3680 C.3       1 <0>         0.0346
     40 C23         7.9499   -0.3337    0.6729 C.2       1 <0>         0.0048
     41 C24         8.6662   -0.6686   -0.4165 C.2       1 <0>         0.0165
     42 C25        10.1646   -0.7022   -0.3966 C.3       1 <0>        -0.0243
     43 H1         -1.8317   -2.0549    2.6331 H         1 <0>         0.0644
     44 H2          0.2060   -2.7849    1.5436 H         1 <0>         0.0622
     45 H3          0.0798   -0.8130   -0.7178 H         1 <0>         0.1496
     46 H4         -3.9248   -0.2113    2.9260 H         1 <0>         0.0423
     47 H5         -4.1999    0.9829    1.6517 H         1 <0>         0.0423
     48 H6         -6.4478   -1.8357    0.8339 H         1 <0>         0.0427
     49 H7         -6.3070   -0.4203    1.8633 H         1 <0>         0.0427
     50 H8          1.9681    0.0907   -1.3125 H         1 <0>         0.0646
     51 H9          4.2045    0.7734    0.4444 H         1 <0>         0.1501
     52 H10        -5.3735   -4.6970   -0.4200 H         1 <0>         0.2954
     53 H11         2.5900    1.6792    2.0662 H         1 <0>         0.0622
     54 H12         0.9977    2.1064   -1.9202 H         1 <0>         0.0622
     55 H13         1.8811    3.9726    2.5923 H         1 <0>         0.0654
     56 H14         0.2947    4.4012   -1.3899 H         1 <0>         0.0654
     57 H15         6.3591   -1.2723   -2.7338 H         1 <0>         0.0816
     58 H16        -9.3751    2.1252   -2.8228 H         1 <0>         0.0474
     59 H17        -7.9566    1.0709   -3.0857 H         1 <0>         0.0474
     60 H18        -7.8184    2.5329   -2.0461 H         1 <0>         0.0474
     61 H19         8.6171   -1.2418   -2.4042 H         1 <0>         0.1650
     62 H20         8.4032   -0.0709    1.6211 H         1 <0>         0.0673
     63 H21         0.2223    5.9956    0.1488 H         1 <0>         0.2921
     64 H22        10.5712   -0.0013   -1.1333 H         1 <0>         0.0292
     65 H23        10.5699   -0.4288    0.5834 H         1 <0>         0.0292
     66 H24        10.5263   -1.7071   -0.6387 H         1 <0>         0.0292
@<TRIPOS>BOND
     1    1   18 1
     2    1   23 1
     3    2   25 1
     4    2   32 1
     5    3   20 2
     6    4   26 1
     7    4   52 1
     8    5   24 2
     9    6   26 2
    10    7   31 2
    11    8   36 1
    12    8   63 1
    13    9   37 2
    14   10   18 1
    15   10   20 am
    16   10   21 1
    17   11   19 1
    18   11   24 am
    19   11   45 1
    20   12   27 1
    21   12   31 am
    22   12   51 1
    23   13   15 1
    24   13   32 2
    25   13   39 1
    26   14   17 2
    27   14   32 1
    28   15   17 1
    29   16   38 1
    30   16   41 2
    31   16   61 1
    32   18   19 1
    33   18   43 1
    34   19   20 1
    35   19   44 1
    36   21   22 2
    37   21   26 1
    38   22   23 1
    39   22   25 1
    40   23   46 1
    41   23   47 1
    42   24   27 1
    43   25   48 1
    44   25   49 1
    45   27   28 1
    46   27   50 1
    47   28   29 ar
    48   28   30 ar
    49   29   33 ar
    50   29   53 1
    51   30   34 ar
    52   30   54 1
    53   31   35 1
    54   33   36 ar
    55   33   55 1
    56   34   36 ar
    57   34   56 1
    58   35   37 1
    59   35   38 2
    60   37   40 1
    61   38   57 1
    62   39   58 1
    63   39   59 1
    64   39   60 1
    65   40   41 1
    66   40   62 1
    67   41   42 1
    68   42   64 1
    69   42   65 1
    70   42   66 1
