@<TRIPOS>MOLECULE
DB00297
   49    50     0     0     0
SMALL
USER_CHARGES

@<TRIPOS>ATOM
      1 O1          0.5482    0.0006   -1.4947 O.2       1 <0>        -0.2737
      2 N1         -1.6654   -0.8234   -0.2060 N.3       1 <0>        -0.2915
      3 N2          1.8146   -0.2635    0.4708 N.am      1 <0>        -0.2837
      4 C1         -0.3519   -1.2438    0.3158 C.3       1 <0>         0.0875
      5 C2         -0.0557   -2.7177    0.0063 C.3       1 <0>        -0.0288
      6 C3         -2.7417   -1.6851    0.3152 C.3       1 <0>        -0.0004
      7 C4         -1.1638   -3.6316    0.5100 C.3       1 <0>        -0.0500
      8 C5         -2.5098   -3.1578   -0.0192 C.3       1 <0>        -0.0401
      9 C6         -1.9688    0.5734    0.1304 C.3       1 <0>        -0.0004
     10 C7          0.7107   -0.4272   -0.3565 C.2       1 <0>         0.2345
     11 C8         -3.3155    0.9819   -0.4641 C.3       1 <0>        -0.0404
     12 C9         -3.6613    2.4281   -0.1072 C.3       1 <0>        -0.0548
     13 C10         3.0072    0.4424    0.1855 C.ar      1 <0>         0.0393
     14 C11        -4.9837    2.8538   -0.7249 C.3       1 <0>        -0.0652
     15 C12         4.0699   -0.2253   -0.4049 C.ar      1 <0>        -0.0290
     16 C13         3.0939    1.7901    0.5018 C.ar      1 <0>        -0.0290
     17 C14         5.2459    0.4702   -0.6856 C.ar      1 <0>        -0.0571
     18 C15         4.2699    2.4858    0.2211 C.ar      1 <0>        -0.0571
     19 C16         3.9933   -1.6769   -0.7522 C.3       1 <0>        -0.0379
     20 C17         1.9586    2.5248    1.1379 C.3       1 <0>        -0.0379
     21 C18         5.3459    1.8259   -0.3726 C.ar      1 <0>        -0.0611
     22 H1         -0.3211   -1.0886    1.4032 H         1 <0>         0.0559
     23 H2          0.8958   -3.0178    0.4628 H         1 <0>         0.0285
     24 H3          0.0660   -2.8617   -1.0762 H         1 <0>         0.0285
     25 H4         -3.7059   -1.4669   -0.1488 H         1 <0>         0.0427
     26 H5         -2.8522   -1.5665    1.4011 H         1 <0>         0.0427
     27 H6         -1.1751   -3.6280    1.6068 H         1 <0>         0.0266
     28 H7         -0.9756   -4.6628    0.1918 H         1 <0>         0.0266
     29 H8         -2.5494   -3.3021   -1.1064 H         1 <0>         0.0278
     30 H9         -3.3110   -3.7675    0.4141 H         1 <0>         0.0278
     31 H10        -1.2110    1.2569   -0.2669 H         1 <0>         0.0427
     32 H11        -1.9845    0.7161    1.2192 H         1 <0>         0.0427
     33 H12        -4.1466    0.3893   -0.0739 H         1 <0>         0.0277
     34 H13        -3.2989    0.8603   -1.5543 H         1 <0>         0.0277
     35 H14        -2.8698    3.0984   -0.4621 H         1 <0>         0.0263
     36 H15        -3.7183    2.5413    0.9818 H         1 <0>         0.0263
     37 H16         1.8437   -0.7929    1.3395 H         1 <0>         0.1549
     38 H17        -5.2082    3.8919   -0.4605 H         1 <0>         0.0230
     39 H18        -4.9483    2.7815   -1.8165 H         1 <0>         0.0230
     40 H19        -5.8058    2.2270   -0.3649 H         1 <0>         0.0230
     41 H20         6.0937   -0.0278   -1.1485 H         1 <0>         0.0621
     42 H21         4.3647    3.5424    0.4572 H         1 <0>         0.0621
     43 H22         3.2374   -1.8450   -1.5263 H         1 <0>         0.0278
     44 H23         4.9468   -2.0555   -1.1363 H         1 <0>         0.0278
     45 H24         3.7435   -2.2722    0.1326 H         1 <0>         0.0278
     46 H25         1.1117    2.5893    0.4468 H         1 <0>         0.0278
     47 H26         1.6384    2.0212    2.0561 H         1 <0>         0.0278
     48 H27         2.2382    3.5475    1.4134 H         1 <0>         0.0278
     49 H28         6.2614    2.3676   -0.5916 H         1 <0>         0.0618
@<TRIPOS>BOND
     1    1   10 2
     2    2    4 1
     3    2    6 1
     4    2    9 1
     5    3   10 am
     6    3   13 1
     7    3   37 1
     8    4    5 1
     9    4   10 1
    10    4   22 1
    11    5    7 1
    12    5   23 1
    13    5   24 1
    14    6    8 1
    15    6   25 1
    16    6   26 1
    17    7    8 1
    18    7   27 1
    19    7   28 1
    20    8   29 1
    21    8   30 1
    22    9   11 1
    23    9   31 1
    24    9   32 1
    25   11   12 1
    26   11   33 1
    27   11   34 1
    28   12   14 1
    29   12   35 1
    30   12   36 1
    31   13   15 ar
    32   13   16 ar
    33   14   38 1
    34   14   39 1
    35   14   40 1
    36   15   17 ar
    37   15   19 1
    38   16   18 ar
    39   16   20 1
    40   17   21 ar
    41   17   41 1
    42   18   21 ar
    43   18   42 1
    44   19   43 1
    45   19   44 1
    46   19   45 1
    47   20   46 1
    48   20   47 1
    49   20   48 1
    50   21   49 1
