@<TRIPOS>MOLECULE
DB00770
   59    59     0     0     0
SMALL
USER_CHARGES

@<TRIPOS>ATOM
      1 O1          5.6641    0.1821   -0.0899 O.3       1 <0>        -0.3908
      2 O2          3.0595   -3.7221   -0.2984 O.2       1 <0>        -0.2970
      3 O3          2.8504    4.4460    0.4643 O.3       1 <0>        -0.3878
      4 O4         -4.7533   -0.4741    1.9320 O.3       1 <0>        -0.4806
      5 O5         -4.0708   -2.4342    2.8534 O.2       1 <0>        -0.2510
      6 C1          2.3816   -1.4326    0.1392 C.3       1 <0>         0.0262
      7 C2          3.2726   -0.2006   -0.0815 C.3       1 <0>         0.0131
      8 C3          4.6423   -0.6372    0.4554 C.3       1 <0>         0.0688
      9 C4          4.7995   -2.0787   -0.0234 C.3       1 <0>         0.0327
     10 C5          1.1971   -1.4974   -0.8090 C.3       1 <0>        -0.0429
     11 C6          3.3718   -2.5561   -0.0911 C.2       1 <0>         0.1395
     12 C7          0.1438   -2.4953   -0.3245 C.3       1 <0>        -0.0524
     13 C8          2.7433    1.0213    0.5984 C.2       1 <0>        -0.0793
     14 C9         -1.0287   -2.5834   -1.3035 C.3       1 <0>        -0.0530
     15 C10         2.4399    2.1597   -0.0422 C.2       1 <0>        -0.0595
     16 C11        -2.1190   -3.5648   -0.8627 C.3       1 <0>        -0.0526
     17 C12         1.9093    3.3862    0.6457 C.3       1 <0>         0.0734
     18 C13         0.5671    3.8595    0.0713 C.3       1 <0>        -0.0232
     19 C14        -2.7700   -3.2732    0.4923 C.3       1 <0>        -0.0430
     20 C15        -0.5205    2.7821    0.1111 C.3       1 <0>        -0.0504
     21 C16        -3.5045   -1.9338    0.5385 C.3       1 <0>         0.0448
     22 C17        -1.8383    3.2249   -0.5331 C.3       1 <0>        -0.0532
     23 C18        -2.9480    2.1777   -0.4324 C.3       1 <0>        -0.0559
     24 C19        -4.1222   -1.6770    1.8944 C.2       1 <0>         0.3047
     25 C20        -4.2288    2.6621   -1.0955 C.3       1 <0>        -0.0653
     26 H1          2.0594   -1.4871    1.1874 H         1 <0>         0.0384
     27 H2          3.3703   -0.0038   -1.1599 H         1 <0>         0.0375
     28 H3          4.6856   -0.5816    1.5503 H         1 <0>         0.0603
     29 H4          5.2563   -2.1378   -1.0157 H         1 <0>         0.0367
     30 H5          5.3745   -2.6733    0.6906 H         1 <0>         0.0367
     31 H6          0.7258   -0.5104   -0.8886 H         1 <0>         0.0272
     32 H7          1.5294   -1.7749   -1.8173 H         1 <0>         0.0272
     33 H8         -0.2126   -2.1707    0.6593 H         1 <0>         0.0265
     34 H9          0.5765   -3.4927   -0.1979 H         1 <0>         0.0265
     35 H10         2.5994    0.9670    1.6752 H         1 <0>         0.0574
     36 H11        -0.6534   -2.9057   -2.2829 H         1 <0>         0.0265
     37 H12        -1.4631   -1.5885   -1.4547 H         1 <0>         0.0265
     38 H13         6.5162   -0.1774    0.2108 H         1 <0>         0.2098
     39 H14         2.5863    2.2228   -1.1180 H         1 <0>         0.0594
     40 H15        -2.8983   -3.5888   -1.6345 H         1 <0>         0.0265
     41 H16        -1.6896   -4.5740   -0.8281 H         1 <0>         0.0265
     42 H17         1.8006    3.2223    1.7243 H         1 <0>         0.0637
     43 H18         0.2335    4.7479    0.6229 H         1 <0>         0.0293
     44 H19         0.7112    4.1970   -0.9641 H         1 <0>         0.0293
     45 H20        -3.4868   -4.0768    0.7067 H         1 <0>         0.0270
     46 H21        -2.0230   -3.3245    1.2925 H         1 <0>         0.0270
     47 H22        -0.7046    2.4991    1.1549 H         1 <0>         0.0266
     48 H23        -0.1817    1.8784   -0.4078 H         1 <0>         0.0266
     49 H24        -1.6569    3.4628   -1.5888 H         1 <0>         0.0265
     50 H25        -2.1757    4.1524   -0.0536 H         1 <0>         0.0265
     51 H26        -4.3018   -1.9189   -0.2123 H         1 <0>         0.0377
     52 H27        -2.8078   -1.1133    0.3400 H         1 <0>         0.0377
     53 H28         3.6892    4.1682    0.8711 H         1 <0>         0.2102
     54 H29        -3.1488    1.9488    0.6204 H         1 <0>         0.0263
     55 H30        -2.6232    1.2468   -0.9114 H         1 <0>         0.0263
     56 H31        -4.5957    3.5767   -0.6189 H         1 <0>         0.0230
     57 H32        -4.0668    2.8685   -2.1582 H         1 <0>         0.0230
     58 H33        -5.0090    1.8989   -1.0125 H         1 <0>         0.0230
     59 H34        -5.1536   -0.2987    2.8102 H         1 <0>         0.2951
@<TRIPOS>BOND
     1    1    8 1
     2    1   38 1
     3    2   11 2
     4    3   17 1
     5    3   53 1
     6    4   24 1
     7    4   59 1
     8    5   24 2
     9    6    7 1
    10    6   10 1
    11    6   11 1
    12    6   26 1
    13    7    8 1
    14    7   13 1
    15    7   27 1
    16    8    9 1
    17    8   28 1
    18    9   11 1
    19    9   29 1
    20    9   30 1
    21   10   12 1
    22   10   31 1
    23   10   32 1
    24   12   14 1
    25   12   33 1
    26   12   34 1
    27   13   15 2
    28   13   35 1
    29   14   16 1
    30   14   36 1
    31   14   37 1
    32   15   17 1
    33   15   39 1
    34   16   19 1
    35   16   40 1
    36   16   41 1
    37   17   18 1
    38   17   42 1
    39   18   20 1
    40   18   43 1
    41   18   44 1
    42   19   21 1
    43   19   45 1
    44   19   46 1
    45   20   22 1
    46   20   47 1
    47   20   48 1
    48   21   24 1
    49   21   51 1
    50   21   52 1
    51   22   23 1
    52   22   49 1
    53   22   50 1
    54   23   25 1
    55   23   54 1
    56   23   55 1
    57   25   56 1
    58   25   57 1
    59   25   58 1
