@<TRIPOS>MOLECULE
DB00659
   22    21     0     0     0
SMALL
USER_CHARGES

@<TRIPOS>ATOM
      1 S1         -2.9309    0.5390   -0.6827 S.o2      1 <0>         0.0798
      2 O1         -3.5472    1.6699    0.3183 O.3       1 <0>        -0.2539
      3 O2         -3.8151   -0.6121   -0.6872 O.2       1 <0>        -0.1474
      4 O3         -2.5178    1.1837   -1.9159 O.2       1 <0>        -0.1474
      5 O4          2.6801   -0.9112   -1.3454 O.2       1 <0>        -0.2761
      6 N1          1.4501   -0.3450    0.5495 N.am      1 <0>        -0.3155
      7 C1         -0.7476   -1.0383   -0.3216 C.3       1 <0>        -0.0155
      8 C2         -1.4930    0.1524    0.2658 C.3       1 <0>         0.0941
      9 C3          0.4876   -1.4106    0.4906 C.3       1 <0>         0.0131
     10 C4          2.4708   -0.1838   -0.3782 C.2       1 <0>         0.2099
     11 C5          3.3202    1.0266   -0.0962 C.3       1 <0>         0.0121
     12 H1         -1.4130   -1.9087   -0.3672 H         1 <0>         0.0297
     13 H2         -0.4556   -0.8137   -1.3550 H         1 <0>         0.0297
     14 H3         -1.8235   -0.0756    1.2845 H         1 <0>         0.0526
     15 H4         -0.8685    1.0507    0.2868 H         1 <0>         0.0526
     16 H5          0.2082   -1.6562    1.5207 H         1 <0>         0.0462
     17 H6          0.9619   -2.2951    0.0515 H         1 <0>         0.0462
     18 H7          1.3640    0.3267    1.3068 H         1 <0>         0.1487
     19 H8         -3.9232    1.3289    1.1637 H         1 <0>         0.2445
     20 H9          4.2317    0.9853   -0.6988 H         1 <0>         0.0322
     21 H10         2.7602    1.9306   -0.3505 H         1 <0>         0.0322
     22 H11         3.6006    1.0565    0.9606 H         1 <0>         0.0322
@<TRIPOS>BOND
     1    1    2 1
     2    1    3 2
     3    1    4 2
     4    1    8 1
     5    2   19 1
     6    5   10 2
     7    6    9 1
     8    6   10 am
     9    6   18 1
    10    7    8 1
    11    7    9 1
    12    7   12 1
    13    7   13 1
    14    8   14 1
    15    8   15 1
    16    9   16 1
    17    9   17 1
    18   10   11 1
    19   11   20 1
    20   11   21 1
    21   11   22 1
