@<TRIPOS>MOLECULE
DB00596
   56    59     0     0     0
SMALL
USER_CHARGES

@<TRIPOS>ATOM
      1 Cl1         5.0548   -3.3499   -0.2917 Cl        1 <0>        -0.1173
      2 F1         -1.5193   -0.3602    1.5509 F         1 <0>        -0.2377
      3 F2         -3.4427    3.2688    0.1500 F         1 <0>        -0.2407
      4 O1          2.8481   -0.4479    2.0195 O.3       1 <0>        -0.3802
      5 O2         -0.6057   -2.0945   -1.4721 O.3       1 <0>        -0.3886
      6 O3          4.8541   -0.4173   -0.7088 O.2       1 <0>        -0.2931
      7 O4         -6.3702   -0.1891    2.0247 O.2       1 <0>        -0.2879
      8 C1          1.5904   -0.3847   -0.0846 C.3       1 <0>         0.0095
      9 C2          0.7481    0.8359    0.3472 C.3       1 <0>        -0.0262
     10 C3         -0.6573    0.8568   -0.2731 C.3       1 <0>         0.0029
     11 C4         -1.4324   -0.4317    0.1691 C.3       1 <0>         0.1528
     12 C5          2.9326   -0.0595    0.6420 C.3       1 <0>         0.1329
     13 C6          1.6858    2.0101    0.0848 C.3       1 <0>        -0.0436
     14 C7          0.8479   -1.6486    0.3993 C.3       1 <0>        -0.0151
     15 C8          3.0598    1.4963    0.5862 C.3       1 <0>        -0.0072
     16 C9         -0.6129   -1.7294   -0.1014 C.3       1 <0>         0.0910
     17 C10        -2.9253   -0.4331   -0.3492 C.3       1 <0>         0.0469
     18 C11        -1.4110    2.1283    0.1508 C.3       1 <0>        -0.0117
     19 C12         1.8286   -0.4534   -1.6185 C.3       1 <0>        -0.0562
     20 C13        -2.8513    2.1409   -0.3417 C.3       1 <0>         0.1237
     21 C14        -3.5692    0.8882    0.0951 C.2       1 <0>        -0.0198
     22 C15         4.1108   -0.8582    0.1665 C.2       1 <0>         0.1798
     23 C16         4.1921    2.0619   -0.2655 C.3       1 <0>        -0.0594
     24 C17        -3.0623   -0.5270   -1.8868 C.3       1 <0>        -0.0492
     25 C18        -3.6754   -1.6299    0.2180 C.2       1 <0>        -0.0674
     26 C19        -4.6722    0.9565    0.8571 C.2       1 <0>        -0.0121
     27 C20         4.3014   -2.2041    0.8274 C.3       1 <0>         0.0838
     28 C21        -4.7723   -1.5655    0.9787 C.2       1 <0>        -0.0179
     29 C22        -5.3551   -0.2613    1.3404 C.2       1 <0>         0.1788
     30 H1          0.5977    0.8006    1.4375 H         1 <0>         0.0311
     31 H2         -0.5737    0.8777   -1.3643 H         1 <0>         0.0336
     32 H3          1.7064    2.2737   -0.9786 H         1 <0>         0.0272
     33 H4          1.3838    2.9055    0.6386 H         1 <0>         0.0272
     34 H5          0.8190   -1.6753    1.4953 H         1 <0>         0.0297
     35 H6          1.3902   -2.5427    0.0711 H         1 <0>         0.0297
     36 H7          3.2060    1.8844    1.6036 H         1 <0>         0.0330
     37 H8         -1.0789   -2.5578    0.4447 H         1 <0>         0.0626
     38 H9         -0.9042    3.0203   -0.2369 H         1 <0>         0.0300
     39 H10        -1.4008    2.2330    1.2441 H         1 <0>         0.0300
     40 H11         2.3215   -1.3946   -1.8888 H         1 <0>         0.0236
     41 H12         0.9088   -0.3960   -2.2027 H         1 <0>         0.0236
     42 H13         2.4661    0.3558   -1.9839 H         1 <0>         0.0236
     43 H14        -2.8807    2.2298   -1.4324 H         1 <0>         0.0699
     44 H15         4.1479    3.1578   -0.2457 H         1 <0>         0.0233
     45 H16         5.1733    1.7913    0.1365 H         1 <0>         0.0233
     46 H17         4.1230    1.7727   -1.3178 H         1 <0>         0.0233
     47 H18        -2.8431   -1.5324   -2.2619 H         1 <0>         0.0242
     48 H19        -4.0875   -0.2988   -2.2075 H         1 <0>         0.0242
     49 H20        -2.4000    0.1665   -2.4134 H         1 <0>         0.0242
     50 H21         2.3075    0.1962    2.5051 H         1 <0>         0.2108
     51 H22        -3.3066   -2.6209   -0.0372 H         1 <0>         0.0583
     52 H23        -0.1402   -2.9442   -1.5528 H         1 <0>         0.2099
     53 H24        -5.1005    1.9047    1.1637 H         1 <0>         0.0656
     54 H25         3.3571   -2.6534    1.1332 H         1 <0>         0.0509
     55 H26         4.9519   -2.0896    1.6987 H         1 <0>         0.0509
     56 H27        -5.2636   -2.4625    1.3373 H         1 <0>         0.0653
@<TRIPOS>BOND
     1    1   27 1
     2    2   11 1
     3    3   20 1
     4    4   12 1
     5    4   50 1
     6    5   16 1
     7    5   52 1
     8    6   22 2
     9    7   29 2
    10    8    9 1
    11    8   12 1
    12    8   14 1
    13    8   19 1
    14    9   10 1
    15    9   13 1
    16    9   30 1
    17   10   11 1
    18   10   18 1
    19   10   31 1
    20   11   16 1
    21   11   17 1
    22   12   15 1
    23   12   22 1
    24   13   15 1
    25   13   32 1
    26   13   33 1
    27   14   16 1
    28   14   34 1
    29   14   35 1
    30   15   23 1
    31   15   36 1
    32   16   37 1
    33   17   21 1
    34   17   24 1
    35   17   25 1
    36   18   20 1
    37   18   38 1
    38   18   39 1
    39   19   40 1
    40   19   41 1
    41   19   42 1
    42   20   21 1
    43   20   43 1
    44   21   26 2
    45   22   27 1
    46   23   44 1
    47   23   45 1
    48   23   46 1
    49   24   47 1
    50   24   48 1
    51   24   49 1
    52   25   28 2
    53   25   51 1
    54   26   29 1
    55   26   53 1
    56   27   54 1
    57   27   55 1
    58   28   29 1
    59   28   56 1
