@<TRIPOS>MOLECULE
DB00469
   33    35     0     0     0
SMALL
USER_CHARGES

@<TRIPOS>ATOM
      1 S1          2.9151   -1.4001    0.4873 S.o2      1 <0>         0.0759
      2 S2          3.9508    2.5471   -0.3486 S.3       1 <0>        -0.0916
      3 O1          3.7904   -2.3437   -0.1786 O.2       1 <0>        -0.1497
      4 O2          2.6796   -1.4448    1.9160 O.2       1 <0>        -0.1497
      5 O3          1.0351    2.4100   -0.7625 O.3       1 <0>        -0.5036
      6 O4         -0.9981   -0.0357   -2.0190 O.2       1 <0>        -0.2683
      7 N1          1.4274   -1.2950   -0.3522 N.pl3     1 <0>        -0.1975
      8 N2         -1.3920    0.1938    0.2914 N.am      1 <0>        -0.2652
      9 N3         -3.3703    0.4102    1.5950 N.ar      1 <0>        -0.2401
     10 C1          3.6891    0.1014    0.2556 C.2       1 <0>         0.1264
     11 C2          0.8158    0.0084   -0.5486 C.2       1 <0>         0.1552
     12 C3          2.9402    1.1576   -0.2031 C.2       1 <0>         0.0822
     13 C4          1.5445    1.1492   -0.5122 C.2       1 <0>         0.1601
     14 C5          5.0507    0.3866    0.5030 C.2       1 <0>        -0.0273
     15 C6          0.6097   -2.5322   -0.3836 C.3       1 <0>         0.0239
     16 C7         -0.6254    0.0517   -0.8538 C.2       1 <0>         0.2685
     17 C8          5.3316    1.7009    0.2088 C.2       1 <0>        -0.0217
     18 C9         -2.8037    0.2713    0.3755 C.ar      1 <0>         0.1251
     19 C10        -3.5192    0.1992   -0.8087 C.ar      1 <0>        -0.0215
     20 C11        -4.9058    0.2749   -0.7368 C.ar      1 <0>        -0.0571
     21 C12        -4.7201    0.4801    1.6255 C.ar      1 <0>         0.0297
     22 C13        -5.5254    0.4181    0.4998 C.ar      1 <0>        -0.0435
     23 H1          5.7873   -0.3157    0.8710 H         1 <0>         0.0643
     24 H2         -0.0972   -2.5435    0.4509 H         1 <0>         0.0446
     25 H3          0.0649   -2.6018   -1.3298 H         1 <0>         0.0446
     26 H4          1.2443   -3.4212   -0.3157 H         1 <0>         0.0446
     27 H5          6.2826    2.2076    0.2950 H         1 <0>         0.0694
     28 H6         -0.9175    0.2505    1.1897 H         1 <0>         0.1566
     29 H7          0.0878    2.3334   -0.9639 H         1 <0>         0.2923
     30 H8         -3.1095    0.0888   -1.7993 H         1 <0>         0.0652
     31 H9         -5.5039    0.2224   -1.6416 H         1 <0>         0.0619
     32 H10        -5.1542    0.5914    2.6136 H         1 <0>         0.0830
     33 H11        -6.6047    0.4791    0.5799 H         1 <0>         0.0633
@<TRIPOS>BOND
     1    1    3 2
     2    1    4 2
     3    1    7 1
     4    1   10 1
     5    2   12 1
     6    2   17 1
     7    5   13 1
     8    5   29 1
     9    6   16 2
    10    7   11 1
    11    7   15 1
    12    8   16 am
    13    8   18 1
    14    8   28 1
    15    9   18 ar
    16    9   21 ar
    17   10   12 2
    18   10   14 1
    19   11   13 2
    20   11   16 1
    21   12   13 1
    22   14   17 2
    23   14   23 1
    24   15   24 1
    25   15   25 1
    26   15   26 1
    27   17   27 1
    28   18   19 ar
    29   19   20 ar
    30   19   30 1
    31   20   22 ar
    32   20   31 1
    33   21   22 ar
    34   21   32 1
    35   22   33 1
