@<TRIPOS>MOLECULE
DB00643
   35    37     0     0     0
SMALL
USER_CHARGES

@<TRIPOS>ATOM
      1 O1          3.4049   -2.1390    1.4360 O.2       1 <0>        -0.2867
      2 O2         -6.2971    0.8344    0.4772 O.3       1 <0>        -0.4534
      3 O3         -5.3915   -0.4253   -1.2031 O.2       1 <0>        -0.2260
      4 N1         -1.7766    0.1684    1.1550 N.pl3     1 <0>        -0.3257
      5 N2         -2.4291   -0.8334   -0.7187 N.2       1 <0>        -0.2142
      6 N3         -4.0725    0.3614    0.5774 N.am      1 <0>        -0.2212
      7 C1         -0.6484   -0.4178    0.6413 C.2       1 <0>         0.0681
      8 C2         -1.0817   -1.0367   -0.5279 C.2       1 <0>         0.0908
      9 C3          1.5829   -1.1655    0.2919 C.2       1 <0>         0.0243
     10 C4          0.6737   -0.4585    1.0855 C.2       1 <0>        -0.0254
     11 C5         -0.1547   -1.7427   -1.3131 C.2       1 <0>        -0.0335
     12 C6          1.1782   -1.7969   -0.8866 C.2       1 <0>        -0.0488
     13 C7         -2.8133   -0.1079    0.3076 C.cat     1 <0>         0.2029
     14 C8          2.9764   -1.2439    0.7032 C.2       1 <0>         0.1932
     15 C9          3.9505   -0.2167    0.2558 C.ar      1 <0>         0.0223
     16 C10         3.5148    0.8031   -0.5654 C.ar      1 <0>        -0.0509
     17 C11         5.2616   -0.3137    0.6750 C.ar      1 <0>        -0.0509
     18 C12         4.4302    1.7680   -0.9858 C.ar      1 <0>        -0.0611
     19 C13         6.1769    0.6512    0.2546 C.ar      1 <0>        -0.0611
     20 C14         5.7612    1.6920   -0.5759 C.ar      1 <0>        -0.0617
     21 C15        -5.2640    0.1942   -0.1541 C.2       1 <0>         0.4065
     22 C16        -7.5759    0.7462   -0.1621 C.3       1 <0>         0.0833
     23 H1          0.9757    0.0358    2.0028 H         1 <0>         0.0646
     24 H2         -1.8320    0.7089    2.0078 H         1 <0>         0.1686
     25 H3         -0.4594   -2.2366   -2.2302 H         1 <0>         0.0640
     26 H4          1.8994   -2.3428   -1.4913 H         1 <0>         0.0625
     27 H5         -4.1594    0.9099    1.4298 H         1 <0>         0.1610
     28 H6          2.4912    0.9024   -0.9091 H         1 <0>         0.0625
     29 H7          5.6110   -1.1133    1.3209 H         1 <0>         0.0625
     30 H8          4.1071    2.5788   -1.6325 H         1 <0>         0.0618
     31 H9          7.2134    0.5924    0.5736 H         1 <0>         0.0618
     32 H10         6.4740    2.4433   -0.9031 H         1 <0>         0.0618
     33 H11        -7.5341    1.2013   -1.1561 H         1 <0>         0.0661
     34 H12        -8.2982    1.2971    0.4463 H         1 <0>         0.0661
     35 H13        -7.8953   -0.2983   -0.2267 H         1 <0>         0.0661
@<TRIPOS>BOND
     1    1   14 2
     2    2   21 1
     3    2   22 1
     4    3   21 2
     5    4    7 1
     6    4   13 2
     7    4   24 1
     8    5    8 2
     9    5   13 1
    10    6   13 1
    11    6   21 am
    12    6   27 1
    13    7    8 1
    14    7   10 2
    15    8   11 2
    16    9   10 1
    17    9   12 2
    18    9   14 1
    19   10   23 1
    20   11   12 1
    21   11   25 1
    22   12   26 1
    23   14   15 1
    24   15   16 ar
    25   15   17 ar
    26   16   18 ar
    27   16   28 1
    28   17   19 ar
    29   17   29 1
    30   18   20 ar
    31   18   30 1
    32   19   20 ar
    33   19   31 1
    34   20   32 1
    35   22   33 1
    36   22   34 1
    37   22   35 1
