@<TRIPOS>MOLECULE
DB00682
   39    41     0     0     0
SMALL
USER_CHARGES

@<TRIPOS>ATOM
      1 O1         -2.2799   -0.2261   -2.0514 O.3       1 <0>        -0.4217
      2 O2         -0.4351    0.3914    1.6540 O.3       1 <0>        -0.5055
      3 O3         -0.2830   -0.7913   -2.9828 O.2       1 <0>        -0.2447
      4 O4          0.6528   -3.1371   -1.3902 O.2       1 <0>        -0.2977
      5 C1          1.2460   -0.4508   -0.6918 C.3       1 <0>         0.0262
      6 C2         -0.2402   -0.2141   -0.6735 C.2       1 <0>         0.0866
      7 C3          1.6204   -1.6238    0.2353 C.3       1 <0>         0.0167
      8 C4          2.0074    0.8244   -0.3629 C.ar      1 <0>        -0.0392
      9 C5         -0.9597    0.1691    0.3987 C.2       1 <0>         0.1381
     10 C6         -2.4055    0.3814    0.2977 C.ar      1 <0>         0.0593
     11 C7         -0.9091   -0.4363   -1.9886 C.2       1 <0>         0.3446
     12 C8          1.2518   -2.9906   -0.3259 C.2       1 <0>         0.1312
     13 C9          2.2997    1.7423   -1.3716 C.ar      1 <0>        -0.0580
     14 C10         2.4132    1.0756    0.9477 C.ar      1 <0>        -0.0580
     15 C11        -3.0247    0.1770   -0.9304 C.ar      1 <0>         0.1426
     16 C12        -3.2061    0.7822    1.3762 C.ar      1 <0>        -0.0475
     17 C13         2.9982    2.9116   -1.0697 C.ar      1 <0>        -0.0615
     18 C14         3.1115    2.2447    1.2496 C.ar      1 <0>        -0.0615
     19 C15        -4.3966    0.3578   -1.1121 C.ar      1 <0>        -0.0185
     20 C16         1.6206   -4.1784    0.5246 C.3       1 <0>        -0.0060
     21 C17         3.4040    3.1628    0.2409 C.ar      1 <0>        -0.0617
     22 C18        -4.5829    0.9683    1.2114 C.ar      1 <0>        -0.0609
     23 C19        -5.1772    0.7565   -0.0317 C.ar      1 <0>        -0.0582
     24 H1          1.5964   -0.7415   -1.6905 H         1 <0>         0.0405
     25 H2          1.1615   -1.5480    1.2268 H         1 <0>         0.0351
     26 H3          2.7097   -1.6491    0.3738 H         1 <0>         0.0351
     27 H4          1.9880    1.5594   -2.3965 H         1 <0>         0.0620
     28 H5          2.2086    0.3890    1.7626 H         1 <0>         0.0620
     29 H6         -2.7928    0.9769    2.3619 H         1 <0>         0.0626
     30 H7          3.2255    3.6265   -1.8550 H         1 <0>         0.0618
     31 H8          3.4279    2.4407    2.2700 H         1 <0>         0.0618
     32 H9         -4.8551    0.1914   -2.0822 H         1 <0>         0.0654
     33 H10         2.6981   -4.1787    0.7068 H         1 <0>         0.0306
     34 H11         1.3528   -5.1022    0.0043 H         1 <0>         0.0306
     35 H12         1.0774   -4.1330    1.4716 H         1 <0>         0.0306
     36 H13         3.9477    4.0730    0.4760 H         1 <0>         0.0618
     37 H14        -5.1906    1.2831    2.0552 H         1 <0>         0.0618
     38 H15        -1.0345    0.0131    2.3180 H         1 <0>         0.2922
     39 H16        -6.2460    0.9028   -0.1559 H         1 <0>         0.0619
@<TRIPOS>BOND
     1    1   11 1
     2    1   15 1
     3    2    9 1
     4    2   38 1
     5    3   11 2
     6    4   12 2
     7    5    6 1
     8    5    7 1
     9    5    8 1
    10    5   24 1
    11    6    9 2
    12    6   11 1
    13    7   12 1
    14    7   25 1
    15    7   26 1
    16    8   13 ar
    17    8   14 ar
    18    9   10 1
    19   10   15 ar
    20   10   16 ar
    21   12   20 1
    22   13   17 ar
    23   13   27 1
    24   14   18 ar
    25   14   28 1
    26   15   19 ar
    27   16   22 ar
    28   16   29 1
    29   17   21 ar
    30   17   30 1
    31   18   21 ar
    32   18   31 1
    33   19   23 ar
    34   19   32 1
    35   20   33 1
    36   20   34 1
    37   20   35 1
    38   21   36 1
    39   22   23 ar
    40   22   37 1
    41   23   39 1
