@<TRIPOS>MOLECULE
DB00981
   41    43     0     0     0
SMALL
USER_CHARGES

@<TRIPOS>ATOM
      1 O1         -3.5073   -0.4078    0.9193 O.3       1 <0>        -0.4115
      2 O2         -3.6662   -0.0037   -1.3649 O.2       1 <0>        -0.2260
      3 N1          2.8415    0.5400   -1.0834 N.3       1 <0>        -0.2867
      4 N2          1.8727   -1.4567    0.2588 N.pl3     1 <0>        -0.3162
      5 N3         -5.5163    0.2306    0.0150 N.am      1 <0>        -0.2839
      6 C1          1.3148    0.8513    0.7374 C.3       1 <0>         0.0279
      7 C2          2.4485   -0.1028    0.1950 C.3       1 <0>         0.0860
      8 C3          1.2804    2.0310   -0.2387 C.3       1 <0>        -0.0277
      9 C4          0.1016   -0.0367    0.6654 C.ar      1 <0>        -0.0139
     10 C5          2.6392    1.9775   -0.9113 C.3       1 <0>         0.0012
     11 C6          0.4998   -1.3505    0.3900 C.ar      1 <0>         0.0347
     12 C7          1.5895    1.3010    2.1760 C.3       1 <0>        -0.0525
     13 C8          4.2050    0.2251   -1.4847 C.3       1 <0>        -0.0111
     14 C9         -1.2315    0.3026    0.8471 C.ar      1 <0>        -0.0136
     15 C10         2.5708   -2.6372   -0.1795 C.3       1 <0>         0.0022
     16 C11        -0.4561   -2.3518    0.2966 C.ar      1 <0>        -0.0369
     17 C12        -2.1893   -0.7051    0.7471 C.ar      1 <0>         0.1336
     18 C13        -1.8041   -2.0242    0.4739 C.ar      1 <0>        -0.0174
     19 C14        -4.1937   -0.0519   -0.2575 C.2       1 <0>         0.4053
     20 C15        -6.4725    0.6261   -0.9928 C.3       1 <0>         0.0032
     21 H1          3.3020   -0.0643    0.8873 H         1 <0>         0.0680
     22 H2          1.1151    2.9932    0.2576 H         1 <0>         0.0287
     23 H3          0.4910    1.9110   -0.9924 H         1 <0>         0.0287
     24 H4          2.6321    2.5093   -1.8679 H         1 <0>         0.0427
     25 H5          3.4045    2.4237   -0.2636 H         1 <0>         0.0427
     26 H6          0.7784    1.9335    2.5546 H         1 <0>         0.0239
     27 H7          1.6811    0.4447    2.8543 H         1 <0>         0.0239
     28 H8          2.5192    1.8772    2.2394 H         1 <0>         0.0239
     29 H9          4.4495    0.7260   -2.4280 H         1 <0>         0.0391
     30 H10         4.3201   -0.8483   -1.6626 H         1 <0>         0.0391
     31 H11         4.9424    0.5323   -0.7344 H         1 <0>         0.0391
     32 H12        -1.5203    1.3259    1.0639 H         1 <0>         0.0658
     33 H13         2.2534   -3.5187    0.3871 H         1 <0>         0.0428
     34 H14         3.6491   -2.5282   -0.0245 H         1 <0>         0.0428
     35 H15         2.3934   -2.8202   -1.2441 H         1 <0>         0.0428
     36 H16        -0.1797   -3.3804    0.0876 H         1 <0>         0.0637
     37 H17        -2.5561   -2.8060    0.3999 H         1 <0>         0.0655
     38 H18        -5.8351    0.1555    0.9761 H         1 <0>         0.1517
     39 H19        -6.8689    1.6071   -0.7203 H         1 <0>         0.0427
     40 H20        -7.2857   -0.1039   -0.9962 H         1 <0>         0.0427
     41 H21        -6.0124    0.6736   -1.9825 H         1 <0>         0.0427
@<TRIPOS>BOND
     1    1   17 1
     2    1   19 1
     3    2   19 2
     4    3    7 1
     5    3   10 1
     6    3   13 1
     7    4    7 1
     8    4   11 1
     9    4   15 1
    10    5   19 am
    11    5   20 1
    12    5   38 1
    13    6    7 1
    14    6    8 1
    15    6    9 1
    16    6   12 1
    17    7   21 1
    18    8   10 1
    19    8   22 1
    20    8   23 1
    21    9   11 ar
    22    9   14 ar
    23   10   24 1
    24   10   25 1
    25   11   16 ar
    26   12   26 1
    27   12   27 1
    28   12   28 1
    29   13   29 1
    30   13   30 1
    31   13   31 1
    32   14   17 ar
    33   14   32 1
    34   15   33 1
    35   15   34 1
    36   15   35 1
    37   16   18 ar
    38   16   36 1
    39   17   18 ar
    40   18   37 1
    41   20   39 1
    42   20   40 1
    43   20   41 1
