@<TRIPOS>MOLECULE
DB00804
   57    58     0     0     0
SMALL
USER_CHARGES

@<TRIPOS>ATOM
      1 O1         -0.4262    0.2100   -0.1447 O.3       1 <0>        -0.4630
      2 O2          0.4855    1.3444   -1.9387 O.2       1 <0>        -0.2502
      3 N1         -4.0315   -0.4882   -0.4848 N.3       1 <0>        -0.2996
      4 C1          1.8620    0.7276   -0.0498 C.3       1 <0>         0.0706
      5 C2          2.1628   -0.7602    0.1210 C.3       1 <0>        -0.0253
      6 C3          3.0023    1.4060   -0.8311 C.3       1 <0>        -0.0370
      7 C4          1.6665    1.3842    1.3293 C.3       1 <0>        -0.0370
      8 C5          2.2885   -1.4480   -1.2451 C.3       1 <0>        -0.0492
      9 C6          3.4352   -0.9637    0.9544 C.3       1 <0>        -0.0492
     10 C7          2.8610    2.9276   -0.8914 C.3       1 <0>        -0.0520
     11 C8          1.5352    2.9058    1.2517 C.3       1 <0>        -0.0520
     12 C9          2.6419   -2.9266   -1.1013 C.3       1 <0>        -0.0528
     13 C10         3.7869   -2.4431    1.0944 C.3       1 <0>        -0.0528
     14 C11         2.7007    3.5348    0.4973 C.3       1 <0>        -0.0530
     15 C12         3.9022   -3.1252   -0.2653 C.3       1 <0>        -0.0530
     16 C13         0.5797    0.8115   -0.8413 C.2       1 <0>         0.3136
     17 C14        -1.7066    0.2174   -0.7837 C.3       1 <0>         0.1051
     18 C15        -2.7071   -0.4871    0.1187 C.3       1 <0>         0.0332
     19 C16        -4.6786    0.8154   -0.3168 C.3       1 <0>        -0.0038
     20 C17        -4.8646   -1.5443    0.0954 C.3       1 <0>        -0.0038
     21 C18        -6.0337    0.8480   -1.0028 C.3       1 <0>        -0.0524
     22 C19        -5.0896   -1.3128    1.5799 C.3       1 <0>        -0.0524
     23 H1          1.3443   -1.2531    0.6654 H         1 <0>         0.0311
     24 H2          3.0592    1.0587   -1.8684 H         1 <0>         0.0276
     25 H3          3.9807    1.2185   -0.3829 H         1 <0>         0.0276
     26 H4          2.5255    1.2091    1.9828 H         1 <0>         0.0276
     27 H5          0.7948    0.9771    1.8555 H         1 <0>         0.0276
     28 H6          1.3574   -1.3818   -1.8181 H         1 <0>         0.0268
     29 H7          3.0762   -0.9962   -1.8561 H         1 <0>         0.0268
     30 H8          4.3109   -0.4781    0.5175 H         1 <0>         0.0268
     31 H9          3.3238   -0.5846    1.9731 H         1 <0>         0.0268
     32 H10         2.0108    3.2199   -1.5165 H         1 <0>         0.0266
     33 H11         3.7509    3.3538   -1.3703 H         1 <0>         0.0266
     34 H12         1.4878    3.3219    2.2648 H         1 <0>         0.0266
     35 H13         0.5923    3.1713    0.7585 H         1 <0>         0.0266
     36 H14         1.8045   -3.4575   -0.6318 H         1 <0>         0.0265
     37 H15         2.7846   -3.3707   -2.0931 H         1 <0>         0.0265
     38 H16         3.0160   -2.9471    1.6905 H         1 <0>         0.0265
     39 H17         4.7311   -2.5496    1.6407 H         1 <0>         0.0265
     40 H18         2.5443    4.6161    0.4114 H         1 <0>         0.0265
     41 H19         3.6262    3.3911    1.0684 H         1 <0>         0.0265
     42 H20         4.7663   -2.7190   -0.8052 H         1 <0>         0.0265
     43 H21         4.0874   -4.1963   -0.1260 H         1 <0>         0.0265
     44 H22        -1.9866    1.2601   -0.9642 H         1 <0>         0.0710
     45 H23        -1.6305   -0.3041   -1.7458 H         1 <0>         0.0710
     46 H24        -2.6865   -0.0210    1.1125 H         1 <0>         0.0460
     47 H25        -2.3382   -1.5119    0.2630 H         1 <0>         0.0460
     48 H26        -4.7651    1.1410    0.7258 H         1 <0>         0.0424
     49 H27        -4.0769    1.5842   -0.8146 H         1 <0>         0.0424
     50 H28        -5.8197   -1.6510   -0.4297 H         1 <0>         0.0424
     51 H29        -4.3686   -2.5136   -0.0453 H         1 <0>         0.0424
     52 H30        -5.9801    0.4583   -2.0253 H         1 <0>         0.0242
     53 H31        -6.7982    0.2924   -0.4517 H         1 <0>         0.0242
     54 H32        -6.3859    1.8837   -1.0687 H         1 <0>         0.0242
     55 H33        -5.6420   -2.1696    1.9849 H         1 <0>         0.0242
     56 H34        -5.7047   -0.4345    1.7940 H         1 <0>         0.0242
     57 H35        -4.1646   -1.2511    2.1598 H         1 <0>         0.0242
@<TRIPOS>BOND
     1    1   16 1
     2    1   17 1
     3    2   16 2
     4    3   18 1
     5    3   19 1
     6    3   20 1
     7    4    5 1
     8    4    6 1
     9    4    7 1
    10    4   16 1
    11    5    8 1
    12    5    9 1
    13    5   23 1
    14    6   10 1
    15    6   24 1
    16    6   25 1
    17    7   11 1
    18    7   26 1
    19    7   27 1
    20    8   12 1
    21    8   28 1
    22    8   29 1
    23    9   13 1
    24    9   30 1
    25    9   31 1
    26   10   14 1
    27   10   32 1
    28   10   33 1
    29   11   14 1
    30   11   34 1
    31   11   35 1
    32   12   15 1
    33   12   36 1
    34   12   37 1
    35   13   15 1
    36   13   38 1
    37   13   39 1
    38   14   40 1
    39   14   41 1
    40   15   42 1
    41   15   43 1
    42   17   18 1
    43   17   44 1
    44   17   45 1
    45   18   46 1
    46   18   47 1
    47   19   21 1
    48   19   48 1
    49   19   49 1
    50   20   22 1
    51   20   50 1
    52   20   51 1
    53   21   52 1
    54   21   53 1
    55   21   54 1
    56   22   55 1
    57   22   56 1
    58   22   57 1
