@<TRIPOS>MOLECULE
DB00943
   28    29     0     0     0
SMALL
USER_CHARGES

@<TRIPOS>ATOM
      1 O1         -1.2333   -0.0744   -1.2058 O.3       1 <0>        -0.3510
      2 O2         -2.3611    2.4638   -0.8123 O.3       1 <0>        -0.3925
      3 O3          1.7390   -2.8202   -0.5765 O.2       1 <0>        -0.2444
      4 N1          0.8559   -0.6999   -0.3551 N.am      1 <0>        -0.2726
      5 N2          3.2200   -1.1438   -0.1922 N.2       1 <0>        -0.1783
      6 N3          4.7321    0.5783    0.2035 N.pl3     1 <0>        -0.3430
      7 C1         -0.5015   -1.1174   -0.5464 C.3       1 <0>         0.1398
      8 C2         -1.2194   -1.4046    0.7581 C.3       1 <0>        -0.0048
      9 C3         -2.6506   -1.0861    0.4029 C.3       1 <0>        -0.0203
     10 C4         -2.5042    0.0878   -0.5524 C.3       1 <0>         0.0843
     11 C5         -2.5130    1.4365    0.1547 C.3       1 <0>         0.0705
     12 C6          1.1118    0.6435   -0.1348 C.2       1 <0>         0.0151
     13 C7          1.9338   -1.6186   -0.3845 C.2       1 <0>         0.3521
     14 C8          2.3410    1.1198    0.0535 C.2       1 <0>        -0.0056
     15 C9          3.4463    0.1271    0.0145 C.2       1 <0>         0.1230
     16 H1         -0.5330   -1.9994   -1.1970 H         1 <0>         0.0839
     17 H2         -0.8807   -0.7399    1.5622 H         1 <0>         0.0309
     18 H3         -1.0757   -2.4335    1.1009 H         1 <0>         0.0309
     19 H4         -3.0871   -1.9395   -0.1307 H         1 <0>         0.0292
     20 H5         -3.2808   -0.8757    1.2715 H         1 <0>         0.0292
     21 H6         -3.2806    0.0733   -1.3252 H         1 <0>         0.0620
     22 H7         -1.7020    1.5289    0.8820 H         1 <0>         0.0583
     23 H8         -3.4651    1.5901    0.6730 H         1 <0>         0.0583
     24 H9          0.2798    1.3320   -0.1080 H         1 <0>         0.0812
     25 H10         2.5496    2.1666    0.2291 H         1 <0>         0.0666
     26 H11        -2.3784    3.3109   -0.3351 H         1 <0>         0.2095
     27 H12         4.9400    1.5581    0.3654 H         1 <0>         0.1437
     28 H13         5.5171   -0.0639    0.1845 H         1 <0>         0.1437
@<TRIPOS>BOND
     1    1    7 1
     2    1   10 1
     3    2   11 1
     4    2   26 1
     5    3   13 2
     6    4    7 1
     7    4   12 1
     8    4   13 am
     9    5   13 1
    10    5   15 2
    11    6   15 1
    12    6   27 1
    13    6   28 1
    14    7    8 1
    15    7   16 1
    16    8    9 1
    17    8   17 1
    18    8   18 1
    19    9   10 1
    20    9   19 1
    21    9   20 1
    22   10   11 1
    23   10   21 1
    24   11   22 1
    25   11   23 1
    26   12   14 2
    27   12   24 1
    28   14   15 1
    29   14   25 1
