@<TRIPOS>MOLECULE
DB00197
   58    61     0     0     0
SMALL
USER_CHARGES

@<TRIPOS>ATOM
      1 S1         -4.9974   -2.2720   -0.9635 S.3       1 <0>        -0.0542
      2 O1          3.0497    1.5718   -0.4272 O.3       1 <0>        -0.4820
      3 O2         -0.4138    2.6714   -0.1584 O.3       1 <0>        -0.4880
      4 O3          4.1471   -3.6832    0.8732 O.3       1 <0>        -0.5062
      5 O4         -7.8880   -0.6074    0.9775 O.2       1 <0>        -0.2741
      6 O5         -6.6003   -4.2855   -1.5004 O.2       1 <0>        -0.2625
      7 N1         -7.4288   -2.5289   -0.2245 N.am      1 <0>        -0.2463
      8 C1          1.9164    2.2443    0.1538 C.3       1 <0>         0.1418
      9 C2          1.7415    1.8877    1.6388 C.3       1 <0>        -0.0058
     10 C3          1.5911    0.3858    1.8357 C.3       1 <0>        -0.0201
     11 C4          2.6190   -0.3471    1.0259 C.ar      1 <0>         0.0011
     12 C5          3.2714    0.2750   -0.0449 C.ar      1 <0>         0.1282
     13 C6          0.6674    1.9289   -0.6833 C.3       1 <0>         0.1288
     14 C7          2.2149    3.7463    0.0372 C.3       1 <0>        -0.0217
     15 C8          2.9134   -1.6852    1.3211 C.ar      1 <0>        -0.0021
     16 C9          4.2298   -0.4231   -0.7853 C.ar      1 <0>        -0.0021
     17 C10         4.5242   -1.7501   -0.4759 C.ar      1 <0>        -0.0024
     18 C11         3.8636   -2.3824    0.5747 C.ar      1 <0>         0.1234
     19 C12         2.2198   -2.3902    2.4460 C.3       1 <0>        -0.0359
     20 C13         4.9491    0.2561   -1.9094 C.3       1 <0>        -0.0359
     21 C14         5.5504   -2.4987   -1.2658 C.3       1 <0>        -0.0359
     22 C15        -1.6675    2.1200   -0.2737 C.ar      1 <0>         0.1207
     23 C16        -4.2003    1.0073   -0.5059 C.ar      1 <0>        -0.0456
     24 C17        -2.6305    2.4052    0.6846 C.ar      1 <0>        -0.0197
     25 C18        -1.9525    1.2864   -1.3466 C.ar      1 <0>        -0.0197
     26 C19        -5.5608    0.4097   -0.6308 C.3       1 <0>        -0.0069
     27 C20        -5.6699   -0.9392    0.0757 C.3       1 <0>         0.0945
     28 C21        -3.9031    1.8461    0.5679 C.ar      1 <0>        -0.0551
     29 C22        -3.2252    0.7274   -1.4633 C.ar      1 <0>        -0.0551
     30 C23        -7.1120   -1.3100    0.3387 C.2       1 <0>         0.2336
     31 C24        -6.4781   -3.2053   -0.9425 C.2       1 <0>         0.2789
     32 H1          0.8908    2.4121    2.0890 H         1 <0>         0.0308
     33 H2          2.6371    2.2118    2.1880 H         1 <0>         0.0308
     34 H3          0.5890    0.0605    1.5338 H         1 <0>         0.0316
     35 H4          1.7058    0.1756    2.9051 H         1 <0>         0.0316
     36 H5          0.4871    0.8467   -0.6702 H         1 <0>         0.0737
     37 H6          0.8345    2.2131   -1.7303 H         1 <0>         0.0737
     38 H7          3.1605    3.9907    0.5358 H         1 <0>         0.0269
     39 H8          2.3399    4.0406   -1.0114 H         1 <0>         0.0269
     40 H9          1.4277    4.3645    0.4805 H         1 <0>         0.0269
     41 H10         2.3297   -3.4783    2.4014 H         1 <0>         0.0279
     42 H11         2.6236   -2.0531    3.4063 H         1 <0>         0.0279
     43 H12         1.1412   -2.2012    2.4219 H         1 <0>         0.0279
     44 H13         5.9973    0.4260   -1.6416 H         1 <0>         0.0279
     45 H14         4.8939   -0.3437   -2.8247 H         1 <0>         0.0279
     46 H15         4.5253    1.2297   -2.1737 H         1 <0>         0.0279
     47 H16         6.1939   -3.0950   -0.6086 H         1 <0>         0.0279
     48 H17         5.0596   -3.1624   -1.9852 H         1 <0>         0.0279
     49 H18         6.2432   -1.8567   -1.8155 H         1 <0>         0.0279
     50 H19         4.5611   -4.1276    0.1167 H         1 <0>         0.2922
     51 H20        -6.2843    1.1156   -0.1990 H         1 <0>         0.0329
     52 H21        -5.8563    0.3403   -1.6870 H         1 <0>         0.0329
     53 H22        -2.4013    3.0571    1.5226 H         1 <0>         0.0654
     54 H23        -1.2325    1.0711   -2.1300 H         1 <0>         0.0654
     55 H24        -5.1476   -0.9469    1.0392 H         1 <0>         0.0515
     56 H25        -4.6527    2.0701    1.3222 H         1 <0>         0.0621
     57 H26        -3.4453    0.0926   -2.3172 H         1 <0>         0.0621
     58 H27        -8.3615   -2.9144   -0.1174 H         1 <0>         0.1583
@<TRIPOS>BOND
     1    1   27 1
     2    1   31 1
     3    2    8 1
     4    2   12 1
     5    3   13 1
     6    3   22 1
     7    4   18 1
     8    4   50 1
     9    5   30 2
    10    6   31 2
    11    7   30 am
    12    7   31 am
    13    7   58 1
    14    8    9 1
    15    8   13 1
    16    8   14 1
    17    9   10 1
    18    9   32 1
    19    9   33 1
    20   10   11 1
    21   10   34 1
    22   10   35 1
    23   11   12 ar
    24   11   15 ar
    25   12   16 ar
    26   13   36 1
    27   13   37 1
    28   14   38 1
    29   14   39 1
    30   14   40 1
    31   15   18 ar
    32   15   19 1
    33   16   17 ar
    34   16   20 1
    35   17   18 ar
    36   17   21 1
    37   19   41 1
    38   19   42 1
    39   19   43 1
    40   20   44 1
    41   20   45 1
    42   20   46 1
    43   21   47 1
    44   21   48 1
    45   21   49 1
    46   22   24 ar
    47   22   25 ar
    48   23   26 1
    49   23   28 ar
    50   23   29 ar
    51   24   28 ar
    52   24   53 1
    53   25   29 ar
    54   25   54 1
    55   26   27 1
    56   26   51 1
    57   26   52 1
    58   27   30 1
    59   27   55 1
    60   28   56 1
    61   29   57 1
