@<TRIPOS>MOLECULE
DB00507
   30    31     0     0     0
SMALL
USER_CHARGES

@<TRIPOS>ATOM
      1 S1          3.5628   -1.1618    0.7008 S.3       1 <0>         0.0219
      2 O1         -2.5407    1.2100   -0.5745 O.3       1 <0>        -0.4253
      3 O2         -0.0436    0.8838   -1.3777 O.2       1 <0>        -0.2697
      4 O3         -2.2859    1.5003    1.7341 O.2       1 <0>        -0.2507
      5 O4          6.9925    0.5347    0.0982 O.3       1 <0>        -0.5755
      6 O5          6.4218   -1.2449    1.2582 O.2       1 <0>         0.0421
      7 N1          1.0993   -0.6939   -0.0617 N.am      1 <0>        -0.2604
      8 N2          2.8332    0.7996   -0.8169 N.2       1 <0>        -0.2260
      9 N3          6.1116   -0.2710    0.5141 N.pl3     1 <0>         0.0887
     10 C1         -1.2868   -0.8292   -0.4196 C.ar      1 <0>         0.0793
     11 C2         -2.4982   -0.1389   -0.3848 C.ar      1 <0>         0.1437
     12 C3         -0.0333   -0.1278   -0.6597 C.2       1 <0>         0.2532
     13 C4         -1.2649   -2.2101   -0.2232 C.ar      1 <0>        -0.0461
     14 C5         -3.6880   -0.8293   -0.1532 C.ar      1 <0>        -0.0185
     15 C6         -2.4546   -2.9006    0.0082 C.ar      1 <0>        -0.0608
     16 C7          2.4173   -0.2362   -0.1561 C.2       1 <0>         0.1708
     17 C8         -3.6661   -2.2102    0.0432 C.ar      1 <0>        -0.0582
     18 C9          4.7746   -0.0821    0.1465 C.2       1 <0>         0.3320
     19 C10         4.2003    0.8920   -0.6430 C.2       1 <0>         0.1147
     20 C11        -2.4186    1.9582    0.6069 C.2       1 <0>         0.3092
     21 C12        -2.4769    3.4238    0.2933 C.3       1 <0>         0.0336
     22 H1         -0.3509   -2.7943   -0.2784 H         1 <0>         0.0626
     23 H2         -4.6358   -0.2986   -0.1258 H         1 <0>         0.0654
     24 H3          1.0008   -1.5054    0.5413 H         1 <0>         0.1571
     25 H4         -2.4392   -3.9768    0.1527 H         1 <0>         0.0618
     26 H5         -4.5926   -2.7480    0.2212 H         1 <0>         0.0619
     27 H6          4.7313    1.7031   -1.1246 H         1 <0>         0.0906
     28 H7         -1.6544    3.6907   -0.3747 H         1 <0>         0.0342
     29 H8         -2.3755    3.9974    1.2190 H         1 <0>         0.0342
     30 H9         -3.4394    3.6653   -0.1643 H         1 <0>         0.0342
@<TRIPOS>BOND
     1    1   16 1
     2    1   18 1
     3    2   11 1
     4    2   20 1
     5    3   12 2
     6    4   20 2
     7    5    9 1
     8    6    9 2
     9    7   12 am
    10    7   16 1
    11    7   24 1
    12    8   16 2
    13    8   19 1
    14    9   18 1
    15   10   11 ar
    16   10   12 1
    17   10   13 ar
    18   11   14 ar
    19   13   15 ar
    20   13   22 1
    21   14   17 ar
    22   14   23 1
    23   15   17 ar
    24   15   25 1
    25   17   26 1
    26   18   19 2
    27   19   27 1
    28   20   21 1
    29   21   28 1
    30   21   29 1
    31   21   30 1
