@<TRIPOS>MOLECULE
DB00887
   45    46     0     0     0
SMALL
USER_CHARGES

@<TRIPOS>ATOM
      1 S1         -4.2539    1.1950   -0.8943 S.o2      1 <0>         0.0595
      2 O1         -1.2907    1.3897   -1.2925 O.3       1 <0>        -0.4522
      3 O2         -3.7075    2.1344   -1.8618 O.2       1 <0>        -0.1531
      4 O3         -5.5416    0.5640   -1.1421 O.2       1 <0>        -0.1531
      5 O4         -1.9828   -4.5002    0.7003 O.3       1 <0>        -0.4771
      6 O5         -4.1846   -3.9395    0.7669 O.2       1 <0>        -0.2451
      7 N1          0.5944   -0.6262   -0.8475 N.pl3     1 <0>        -0.3409
      8 N2         -4.2931    1.9417    0.6413 N.pl3     1 <0>        -0.2034
      9 C1          1.6404   -1.4340   -0.2682 C.3       1 <0>         0.0092
     10 C2          2.9836   -0.7126   -0.3390 C.3       1 <0>        -0.0377
     11 C3         -0.7568   -0.8414   -0.6257 C.ar      1 <0>         0.0728
     12 C4         -1.7111    0.1703   -0.8476 C.ar      1 <0>         0.1754
     13 C5         -3.0676   -0.0614   -0.6199 C.ar      1 <0>         0.1496
     14 C6          4.1343   -1.5514    0.2227 C.3       1 <0>        -0.0545
     15 C7         -1.2103   -2.0932   -0.1676 C.ar      1 <0>        -0.0232
     16 C8         -2.5667   -2.3250    0.0602 C.ar      1 <0>         0.0627
     17 C9         -3.4953   -1.3091   -0.1659 C.ar      1 <0>        -0.0176
     18 C10         5.4672   -0.8331    0.0780 C.3       1 <0>        -0.0652
     19 C11        -0.4003    2.0891   -0.4978 C.ar      1 <0>         0.1286
     20 C12        -3.0128   -3.6259    0.5332 C.2       1 <0>         0.3369
     21 C13        -0.6292    2.1677    0.8649 C.ar      1 <0>        -0.0193
     22 C14         0.6973    2.6941   -1.0845 C.ar      1 <0>        -0.0193
     23 C15         0.2680    2.8738    1.6663 C.ar      1 <0>        -0.0583
     24 C16         1.5946    3.4002   -0.2832 C.ar      1 <0>        -0.0583
     25 C17         1.3799    3.4900    1.0923 C.ar      1 <0>        -0.0615
     26 H1          1.4218   -1.6465    0.7857 H         1 <0>         0.0461
     27 H2          1.7081   -2.3892   -0.8015 H         1 <0>         0.0461
     28 H3          3.2003   -0.4524   -1.3832 H         1 <0>         0.0280
     29 H4          2.9192    0.2358    0.2095 H         1 <0>         0.0280
     30 H5          0.8577    0.1094   -1.4914 H         1 <0>         0.1462
     31 H6          3.9518   -1.7697    1.2812 H         1 <0>         0.0263
     32 H7          4.1855   -2.5115   -0.3036 H         1 <0>         0.0263
     33 H8         -0.4853   -2.8860   -0.0045 H         1 <0>         0.0645
     34 H9         -4.5505   -1.4917    0.0206 H         1 <0>         0.0646
     35 H10         5.4588    0.1204    0.6157 H         1 <0>         0.0230
     36 H11         6.2750   -1.4475    0.4879 H         1 <0>         0.0230
     37 H12         5.6930   -0.6327   -0.9742 H         1 <0>         0.0230
     38 H13        -5.1318    1.8034    1.2181 H         1 <0>         0.1442
     39 H14        -3.8793    2.8781    0.7272 H         1 <0>         0.1442
     40 H15        -1.4907    1.7077    1.3374 H         1 <0>         0.0654
     41 H16         0.8660    2.6254   -2.1549 H         1 <0>         0.0654
     42 H17         0.1000    2.9457    2.7369 H         1 <0>         0.0619
     43 H18         2.4607    3.8793   -0.7301 H         1 <0>         0.0619
     44 H19         2.0785    4.0397    1.7160 H         1 <0>         0.0618
     45 H20        -2.2942   -5.3743    1.0188 H         1 <0>         0.2954
@<TRIPOS>BOND
     1    1    3 2
     2    1    4 2
     3    1    8 1
     4    1   13 1
     5    2   12 1
     6    2   19 1
     7    5   20 1
     8    5   45 1
     9    6   20 2
    10    7    9 1
    11    7   11 1
    12    7   30 1
    13    8   38 1
    14    8   39 1
    15    9   10 1
    16    9   26 1
    17    9   27 1
    18   10   14 1
    19   10   28 1
    20   10   29 1
    21   11   12 ar
    22   11   15 ar
    23   12   13 ar
    24   13   17 ar
    25   14   18 1
    26   14   31 1
    27   14   32 1
    28   15   16 ar
    29   15   33 1
    30   16   17 ar
    31   16   20 1
    32   17   34 1
    33   18   35 1
    34   18   36 1
    35   18   37 1
    36   19   21 ar
    37   19   22 ar
    38   21   23 ar
    39   21   40 1
    40   22   24 ar
    41   22   41 1
    42   23   25 ar
    43   23   42 1
    44   24   25 ar
    45   24   43 1
    46   25   44 1
