@<TRIPOS>MOLECULE
DB00472
   40    41     0     0     0
SMALL
USER_CHARGES

@<TRIPOS>ATOM
      1 F1          5.9776   -1.6483   -0.4503 F         1 <0>        -0.1659
      2 F2          5.3798   -1.9933    1.6059 F         1 <0>        -0.1659
      3 F3          5.0771   -3.5456    0.1134 F         1 <0>        -0.1659
      4 O1         -0.1492   -0.1677   -0.8361 O.3       1 <0>        -0.4842
      5 N1         -4.1821   -1.4119   -0.1490 N.3       1 <0>        -0.3188
      6 C1         -0.8707    0.4827    0.2120 C.3       1 <0>         0.1263
      7 C2         -2.3751    0.2354    0.0138 C.3       1 <0>         0.0010
      8 C3         -0.4844    1.9434    0.2066 C.ar      1 <0>        -0.0073
      9 C4         -2.7477   -1.2468    0.0587 C.3       1 <0>        -0.0007
     10 C5         -0.1451    2.5506   -0.9914 C.ar      1 <0>        -0.0551
     11 C6         -0.4764    2.6471    1.3997 C.ar      1 <0>        -0.0551
     12 C7          1.0720   -0.6506   -0.5620 C.ar      1 <0>         0.1214
     13 C8          0.2121    3.8990   -0.9964 C.ar      1 <0>        -0.0614
     14 C9         -0.1194    3.9955    1.3948 C.ar      1 <0>        -0.0614
     15 C10         2.1988   -0.1877   -1.2615 C.ar      1 <0>        -0.0194
     16 C11         1.2508   -1.6297    0.4293 C.ar      1 <0>        -0.0194
     17 C12         3.6298   -1.6620    0.0094 C.ar      1 <0>         0.0550
     18 C13         0.2249    4.6214    0.1967 C.ar      1 <0>        -0.0617
     19 C14        -4.5474   -2.8211   -0.1494 C.3       1 <0>        -0.0158
     20 C15         3.4689   -0.6898   -0.9778 C.ar      1 <0>        -0.0467
     21 C16         2.5209   -2.1319    0.7130 C.ar      1 <0>        -0.0467
     22 C17         4.9875   -2.1984    0.3135 C.3       1 <0>         0.4174
     23 H1         -0.5934    0.0573    1.1860 H         1 <0>         0.0785
     24 H2         -2.9405    0.7823    0.7797 H         1 <0>         0.0317
     25 H3         -2.6793    0.6459   -0.9589 H         1 <0>         0.0317
     26 H4         -2.1936   -1.7903   -0.7159 H         1 <0>         0.0425
     27 H5         -2.4596   -1.6605    1.0324 H         1 <0>         0.0425
     28 H6         -0.1691    2.0197   -1.9383 H         1 <0>         0.0621
     29 H7         -0.7448    2.1692    2.3375 H         1 <0>         0.0621
     30 H8         -4.4497   -0.9946   -1.0402 H         1 <0>         0.1216
     31 H9          0.4750    4.3880   -1.9299 H         1 <0>         0.0618
     32 H10        -0.1102    4.5584    2.3237 H         1 <0>         0.0618
     33 H11         2.0857    0.5664   -2.0362 H         1 <0>         0.0654
     34 H12         0.3976   -2.0221    0.9770 H         1 <0>         0.0654
     35 H13         0.5015    5.6717    0.1926 H         1 <0>         0.0618
     36 H14        -5.6280   -2.9172   -0.2943 H         1 <0>         0.0388
     37 H15        -4.3007   -3.2952    0.8062 H         1 <0>         0.0388
     38 H16        -4.0501   -3.3658   -0.9587 H         1 <0>         0.0388
     39 H17         4.3203   -0.3120   -1.5372 H         1 <0>         0.0624
     40 H18         2.6360   -2.8917    1.4815 H         1 <0>         0.0624
@<TRIPOS>BOND
     1    1   22 1
     2    2   22 1
     3    3   22 1
     4    4    6 1
     5    4   12 1
     6    5    9 1
     7    5   19 1
     8    5   30 1
     9    6    7 1
    10    6    8 1
    11    6   23 1
    12    7    9 1
    13    7   24 1
    14    7   25 1
    15    8   10 ar
    16    8   11 ar
    17    9   26 1
    18    9   27 1
    19   10   13 ar
    20   10   28 1
    21   11   14 ar
    22   11   29 1
    23   12   15 ar
    24   12   16 ar
    25   13   18 ar
    26   13   31 1
    27   14   18 ar
    28   14   32 1
    29   15   20 ar
    30   15   33 1
    31   16   21 ar
    32   16   34 1
    33   17   20 ar
    34   17   21 ar
    35   17   22 1
    36   18   35 1
    37   19   36 1
    38   19   37 1
    39   19   38 1
    40   20   39 1
    41   21   40 1
