@<TRIPOS>MOLECULE
DB00174
   17    16     0     0     0
SMALL
USER_CHARGES

@<TRIPOS>ATOM
      1 O1         -0.2731    2.0721    0.3084 O.3       1 <0>        -0.4795
      2 O2         -1.9543    1.2790   -0.9888 O.2       1 <0>        -0.2492
      3 O3          2.0192    0.1980   -1.7206 O.2       1 <0>        -0.2760
      4 N1         -1.9222   -1.0574    0.4870 N.3       1 <0>        -0.3180
      5 N2          2.2543   -0.0511    0.5540 N.am      1 <0>        -0.3293
      6 C1         -0.6844   -0.2790    0.3985 C.3       1 <0>         0.1115
      7 C2          0.3029   -0.9952   -0.5254 C.3       1 <0>         0.0493
      8 C3         -1.0629    1.0770   -0.1739 C.2       1 <0>         0.3222
      9 C4          1.5987   -0.2185   -0.6438 C.2       1 <0>         0.2125
     10 H1         -0.2939   -0.1472    1.4124 H         1 <0>         0.0579
     11 H2          0.5368   -1.9970   -0.1448 H         1 <0>         0.0379
     12 H3         -0.1121   -1.1111   -1.5346 H         1 <0>         0.0379
     13 H4         -2.3356   -1.1683   -0.4381 H         1 <0>         0.1190
     14 H5         -2.6061   -0.5594    1.0554 H         1 <0>         0.1190
     15 H6          1.9105   -0.4385    1.4265 H         1 <0>         0.1449
     16 H7          3.1343    0.4520    0.5985 H         1 <0>         0.1449
     17 H8         -0.5122    2.9447   -0.0708 H         1 <0>         0.2951
@<TRIPOS>BOND
     1    1    8 1
     2    1   17 1
     3    2    8 2
     4    3    9 2
     5    4    6 1
     6    4   13 1
     7    4   14 1
     8    5    9 am
     9    5   15 1
    10    5   16 1
    11    6    7 1
    12    6    8 1
    13    6   10 1
    14    7    9 1
    15    7   11 1
    16    7   12 1
