@<TRIPOS>MOLECULE
DB00563
   55    57     0     0     0
SMALL
USER_CHARGES

@<TRIPOS>ATOM
      1 O1          6.7420    0.0708    1.9598 O.3       1 <0>        -0.4793
      2 O2          3.7936   -2.4924   -1.2254 O.2       1 <0>        -0.2702
      3 O3          4.6100    0.0244    2.7358 O.2       1 <0>        -0.2489
      4 O4          4.4496    4.1927   -1.2538 O.3       1 <0>        -0.4806
      5 O5          5.7982    2.8100   -2.4444 O.2       1 <0>        -0.2510
      6 N1         -2.4777   -2.7096   -0.0940 N.pl3     1 <0>        -0.3271
      7 N2          3.6376   -0.8255    0.3796 N.am      1 <0>        -0.2983
      8 N3         -3.9943   -0.3446    0.1139 N.ar      1 <0>        -0.2419
      9 N4         -3.5894    1.0713    2.4567 N.ar      1 <0>        -0.2324
     10 N5         -4.3586    3.0038    1.4392 N.ar      1 <0>        -0.1932
     11 N6         -5.0739    2.9914   -0.8496 N.ar      1 <0>        -0.1978
     12 N7         -4.9939    0.9806   -2.0874 N.pl3     1 <0>        -0.3413
     13 N8         -5.1381    4.9639    0.4103 N.pl3     1 <0>        -0.3274
     14 C1          5.0334   -0.4672    0.3884 C.3       1 <0>         0.1209
     15 C2          5.3739    0.6130   -0.6455 C.3       1 <0>        -0.0140
     16 C3         -1.0875   -2.4889   -0.1801 C.ar      1 <0>         0.0298
     17 C4          4.6834    1.9685   -0.4480 C.3       1 <0>         0.0470
     18 C5         -3.1936   -2.4116    1.1307 C.3       1 <0>         0.0555
     19 C6          1.6629   -2.0545   -0.3494 C.ar      1 <0>         0.0368
     20 C7          3.1277   -1.8235   -0.4394 C.2       1 <0>         0.2447
     21 C8         -0.3950   -1.9693    0.9135 C.ar      1 <0>        -0.0399
     22 C9         -0.4049   -2.7915   -1.3584 C.ar      1 <0>        -0.0399
     23 C10         5.4013   -0.0913    1.8090 C.2       1 <0>         0.3253
     24 C11         0.9803   -1.7521    0.8289 C.ar      1 <0>        -0.0479
     25 C12         0.9703   -2.5742   -1.4429 C.ar      1 <0>        -0.0479
     26 C13        -3.5101   -0.9440    1.2125 C.ar      1 <0>         0.0774
     27 C14        -3.2066   -3.2505   -1.2239 C.3       1 <0>         0.0011
     28 C15         5.0428    2.9952   -1.5003 C.2       1 <0>         0.3048
     29 C16        -3.3101   -0.2436    2.3704 C.ar      1 <0>         0.0528
     30 C17        -4.2731    0.9701    0.2019 C.ar      1 <0>         0.1477
     31 C18        -4.0737    1.6974    1.3774 C.ar      1 <0>         0.1851
     32 C19        -4.7755    1.6799   -0.8720 C.ar      1 <0>         0.1491
     33 C20        -4.8434    3.5860    0.3264 C.ar      1 <0>         0.2163
     34 H1          5.6042   -1.3732    0.1478 H         1 <0>         0.0614
     35 H2          5.1239    0.2373   -1.6466 H         1 <0>         0.0294
     36 H3          6.4598    0.7753   -0.6481 H         1 <0>         0.0294
     37 H4          4.9627    2.3828    0.5270 H         1 <0>         0.0378
     38 H5          3.5963    1.8361   -0.4759 H         1 <0>         0.0378
     39 H6          3.0137   -0.2584    0.9443 H         1 <0>         0.1498
     40 H7         -4.1541   -2.9442    1.1483 H         1 <0>         0.0529
     41 H8         -2.6694   -2.7824    2.0197 H         1 <0>         0.0529
     42 H9         -0.8598   -1.7250    1.8608 H         1 <0>         0.0636
     43 H10        -0.8982   -3.1973   -2.2360 H         1 <0>         0.0636
     44 H11         1.4871   -1.3772    1.7132 H         1 <0>         0.0626
     45 H12         1.4842   -2.8120   -2.3707 H         1 <0>         0.0626
     46 H13        -4.2770   -3.3428   -1.0072 H         1 <0>         0.0428
     47 H14        -2.8503   -4.2542   -1.4808 H         1 <0>         0.0428
     48 H15        -3.1248   -2.5961   -2.0990 H         1 <0>         0.0428
     49 H16        -2.9226   -0.6989    3.2735 H         1 <0>         0.0849
     50 H17         6.9809    0.2982    2.8836 H         1 <0>         0.2951
     51 H18         4.6941    4.8663   -1.9236 H         1 <0>         0.2951
     52 H19        -5.3531    1.5155   -2.8682 H         1 <0>         0.1438
     53 H20        -4.4230    0.1669   -2.2811 H         1 <0>         0.1438
     54 H21        -5.5035    5.4444   -0.4002 H         1 <0>         0.1452
     55 H22        -4.9789    5.4543    1.2796 H         1 <0>         0.1452
@<TRIPOS>BOND
     1    1   23 1
     2    1   50 1
     3    2   20 2
     4    3   23 2
     5    4   28 1
     6    4   51 1
     7    5   28 2
     8    6   16 1
     9    6   18 1
    10    6   27 1
    11    7   14 1
    12    7   20 am
    13    7   39 1
    14    8   26 ar
    15    8   30 ar
    16    9   29 ar
    17    9   31 ar
    18   10   31 ar
    19   10   33 ar
    20   11   32 ar
    21   11   33 ar
    22   12   32 1
    23   12   52 1
    24   12   53 1
    25   13   33 1
    26   13   54 1
    27   13   55 1
    28   14   15 1
    29   14   23 1
    30   14   34 1
    31   15   17 1
    32   15   35 1
    33   15   36 1
    34   16   21 ar
    35   16   22 ar
    36   17   28 1
    37   17   37 1
    38   17   38 1
    39   18   26 1
    40   18   40 1
    41   18   41 1
    42   19   20 1
    43   19   24 ar
    44   19   25 ar
    45   21   24 ar
    46   21   42 1
    47   22   25 ar
    48   22   43 1
    49   24   44 1
    50   25   45 1
    51   26   29 ar
    52   27   46 1
    53   27   47 1
    54   27   48 1
    55   29   49 1
    56   30   31 ar
    57   30   32 ar
