@<TRIPOS>MOLECULE
DB00387
   50    52     0     0     0
SMALL
USER_CHARGES

@<TRIPOS>ATOM
      1 O1          1.4794   -0.3061   -2.1444 O.3       1 <0>        -0.3836
      2 N1         -2.9197   -0.3166   -0.1015 N.3       1 <0>        -0.3022
      3 C1          1.4584    0.6771    0.0118 C.3       1 <0>        -0.0079
      4 C2          0.8688   -0.4424   -0.8437 C.3       1 <0>         0.0949
      5 C3          2.9873    0.5614    0.0773 C.3       1 <0>        -0.0473
      6 C4          1.0369    2.0506   -0.5274 C.3       1 <0>        -0.0473
      7 C5         -0.6617   -0.2513   -1.0434 C.3       1 <0>        -0.0068
      8 C6          3.6049    1.7015    0.8840 C.3       1 <0>        -0.0527
      9 C7          1.6579    3.1883    0.2802 C.3       1 <0>        -0.0527
     10 C8          3.1768    3.0649    0.3504 C.3       1 <0>        -0.0530
     11 C9         -1.5119   -0.5314    0.1988 C.3       1 <0>         0.0018
     12 C10         1.1920   -1.8634   -0.3737 C.ar      1 <0>        -0.0158
     13 C11        -3.7842   -0.5970    1.0445 C.3       1 <0>        -0.0011
     14 C12        -3.2078    1.0706   -0.4640 C.3       1 <0>        -0.0011
     15 C13        -5.1016    0.0511    0.6449 C.3       1 <0>        -0.0390
     16 C14        -4.7231    1.1446   -0.3493 C.3       1 <0>        -0.0390
     17 C15         1.3841   -2.0841    0.9704 C.ar      1 <0>        -0.0558
     18 C16         1.2781   -2.8637   -1.3137 C.ar      1 <0>        -0.0558
     19 C17         1.6789   -3.3784    1.3987 C.ar      1 <0>        -0.0614
     20 C18         1.5728   -4.1581   -0.8856 C.ar      1 <0>        -0.0614
     21 C19         1.7733   -4.4154    0.4707 C.ar      1 <0>        -0.0617
     22 H1          1.0711    0.6261    1.0367 H         1 <0>         0.0332
     23 H2          3.4201    0.5896   -0.9308 H         1 <0>         0.0269
     24 H3          3.3162   -0.3788    0.5281 H         1 <0>         0.0269
     25 H4         -0.0447    2.1978   -0.4592 H         1 <0>         0.0269
     26 H5          1.3259    2.1775   -1.5768 H         1 <0>         0.0269
     27 H6         -0.8727    0.7153   -1.5053 H         1 <0>         0.0309
     28 H7         -0.9825   -0.9605   -1.8234 H         1 <0>         0.0309
     29 H8          4.6977    1.6232    0.8565 H         1 <0>         0.0265
     30 H9          3.3046    1.6092    1.9351 H         1 <0>         0.0265
     31 H10         1.2447    3.1832    1.2966 H         1 <0>         0.0265
     32 H11         1.3871    4.1507   -0.1686 H         1 <0>         0.0265
     33 H12         3.5820    3.8559    0.9914 H         1 <0>         0.0265
     34 H13         3.6015    3.2150   -0.6500 H         1 <0>         0.0265
     35 H14        -1.1888    0.1018    1.0334 H         1 <0>         0.0427
     36 H15        -1.3839   -1.5747    0.5066 H         1 <0>         0.0427
     37 H16        -3.9006   -1.6708    1.2214 H         1 <0>         0.0426
     38 H17        -3.4062   -0.1302    1.9633 H         1 <0>         0.0426
     39 H18        -2.7471    1.7819    0.2335 H         1 <0>         0.0426
     40 H19        -2.9040    1.3262   -1.4833 H         1 <0>         0.0426
     41 H20        -5.6285    0.4579    1.5139 H         1 <0>         0.0278
     42 H21        -5.7630   -0.6772    0.1609 H         1 <0>         0.0278
     43 H22        -5.1986    0.9456   -1.3170 H         1 <0>         0.0278
     44 H23        -5.0523    2.1320   -0.0101 H         1 <0>         0.0278
     45 H24         1.0090    0.3801   -2.6459 H         1 <0>         0.2106
     46 H25         1.2935   -1.3154    1.7279 H         1 <0>         0.0621
     47 H26         1.1094   -2.6927   -2.3721 H         1 <0>         0.0621
     48 H27         1.8286   -3.5806    2.4553 H         1 <0>         0.0618
     49 H28         1.6419   -4.9667   -1.6073 H         1 <0>         0.0618
     50 H29         2.0003   -5.4237    0.8042 H         1 <0>         0.0618
@<TRIPOS>BOND
     1    1    4 1
     2    1   45 1
     3    2   11 1
     4    2   13 1
     5    2   14 1
     6    3    4 1
     7    3    5 1
     8    3    6 1
     9    3   22 1
    10    4    7 1
    11    4   12 1
    12    5    8 1
    13    5   23 1
    14    5   24 1
    15    6    9 1
    16    6   25 1
    17    6   26 1
    18    7   11 1
    19    7   27 1
    20    7   28 1
    21    8   10 1
    22    8   29 1
    23    8   30 1
    24    9   10 1
    25    9   31 1
    26    9   32 1
    27   10   33 1
    28   10   34 1
    29   11   35 1
    30   11   36 1
    31   12   17 ar
    32   12   18 ar
    33   13   15 1
    34   13   37 1
    35   13   38 1
    36   14   16 1
    37   14   39 1
    38   14   40 1
    39   15   16 1
    40   15   41 1
    41   15   42 1
    42   16   43 1
    43   16   44 1
    44   17   19 ar
    45   17   46 1
    46   18   20 ar
    47   18   47 1
    48   19   21 ar
    49   19   48 1
    50   20   21 ar
    51   20   49 1
    52   21   50 1
