@<TRIPOS>MOLECULE
DB00720
   15    14     0     0     0
SMALL
USER_CHARGES

@<TRIPOS>ATOM
      1 Cl1         0.0074   -2.1399   -1.4337 Cl        1 <0>        -0.0752
      2 Cl2         0.0571   -2.1615    1.4682 Cl        1 <0>        -0.0752
      3 P1          1.6066   -0.2450    0.0046 P.3       1 <0>         0.3752
      4 P2         -1.5903   -0.2532    0.0239 P.3       1 <0>         0.3752
      5 O1          1.5046    0.7781    1.2531 O.3       1 <0>        -0.3216
      6 O2          1.4872    0.7375   -1.2746 O.3       1 <0>        -0.3216
      7 O3         -1.5216    0.7891    1.2586 O.3       1 <0>        -0.3216
      8 O4         -1.5168    0.7045   -1.2773 O.3       1 <0>        -0.3216
      9 O5          2.8140   -1.1352    0.0113 O.2       1 <0>        -0.2550
     10 O6         -2.7709   -1.1795    0.0453 O.2       1 <0>        -0.2550
     11 C1          0.0099   -1.0956    0.0274 C.3       1 <0>         0.3172
     12 H1          2.2765    1.3440    1.4668 H         1 <0>         0.2198
     13 H2          2.2561    1.2962   -1.5170 H         1 <0>         0.2198
     14 H3         -2.3129    1.3298    1.4674 H         1 <0>         0.2198
     15 H4         -2.3069    1.2309   -1.5241 H         1 <0>         0.2198
@<TRIPOS>BOND
     1    1   11 1
     2    2   11 1
     3    3    5 1
     4    3    6 1
     5    3    9 2
     6    3   11 1
     7    4    7 1
     8    4    8 1
     9    4   10 2
    10    4   11 1
    11    5   12 1
    12    6   13 1
    13    7   14 1
    14    8   15 1
