@<TRIPOS>MOLECULE
DB00261
   23    25     0     0     0
SMALL
USER_CHARGES

@<TRIPOS>ATOM
      1 Cl1         1.9645   -3.0147   -0.0001 Cl        1 <0>        -0.0815
      2 Cl2         4.7686   -1.4958    0.0006 Cl        1 <0>        -0.0820
      3 O1         -4.8539    0.8084    0.0011 O.2       1 <0>        -0.2508
      4 N1         -1.5905   -0.3063   -0.0003 N.pl3     1 <0>        -0.2118
      5 N2         -0.2742    1.6421   -0.0001 N.pl3     1 <0>        -0.2072
      6 N3         -2.6829    1.6591   -0.0007 N.2       1 <0>        -0.0049
      7 C1         -0.4882   -1.2394   -0.0003 C.3       1 <0>         0.0907
      8 C2          0.8454   -0.5271    0.0001 C.ar      1 <0>         0.0402
      9 C3         -1.5153    1.0631   -0.0007 C.2       1 <0>         0.3703
     10 C4         -2.9698   -0.7237    0.0002 C.3       1 <0>         0.1549
     11 C5          0.9090    0.8817    0.0002 C.ar      1 <0>         0.0989
     12 C6         -3.6401    0.6487   -0.0004 C.2       1 <0>         0.3408
     13 C7          2.0301   -1.2752   -0.0001 C.ar      1 <0>         0.0683
     14 C8          2.1589    1.5135    0.0001 C.ar      1 <0>        -0.0234
     15 C9          3.2680   -0.6333   -0.0001 C.ar      1 <0>         0.0598
     16 C10         3.3322    0.7585   -0.0000 C.ar      1 <0>        -0.0389
     17 H1         -0.5659   -1.8699   -0.8933 H         1 <0>         0.0687
     18 H2         -0.5662   -1.8703    0.8925 H         1 <0>         0.0687
     19 H3         -3.2324   -1.2716    0.9082 H         1 <0>         0.0749
     20 H4         -3.2328   -1.2727   -0.9071 H         1 <0>         0.0749
     21 H5         -0.1802    2.6513    0.0001 H         1 <0>         0.2510
     22 H6          2.2268    2.5988    0.0001 H         1 <0>         0.0651
     23 H7          4.2889    1.2750    0.0001 H         1 <0>         0.0634
@<TRIPOS>BOND
     1    1   13 1
     2    2   15 1
     3    3   12 2
     4    4    7 1
     5    4    9 1
     6    4   10 1
     7    5    9 1
     8    5   11 1
     9    5   21 1
    10    6    9 2
    11    6   12 1
    12    7    8 1
    13    7   17 1
    14    7   18 1
    15    8   11 ar
    16    8   13 ar
    17   10   12 1
    18   10   19 1
    19   10   20 1
    20   11   14 ar
    21   13   15 ar
    22   14   16 ar
    23   14   22 1
    24   15   16 ar
    25   16   23 1
