@<TRIPOS>MOLECULE
DB00450
   50    53     0     0     0
SMALL
USER_CHARGES

@<TRIPOS>ATOM
      1 F1         -9.1965    0.0491    1.7706 F         1 <0>        -0.2055
      2 O1          4.2628    3.1112   -0.8161 O.2       1 <0>        -0.2462
      3 O2         -4.1096    1.0600   -1.7586 O.2       1 <0>        -0.2921
      4 N1         -0.0414    0.4157   -0.3494 N.3       1 <0>        -0.2983
      5 N2          4.1235    0.8218   -0.1390 N.am      1 <0>        -0.2649
      6 N3          6.1715    1.7886   -0.3931 N.am      1 <0>        -0.3057
      7 C1          0.4751    1.3909    0.6183 C.3       1 <0>         0.0045
      8 C2          1.9112    1.7962    0.2518 C.3       1 <0>         0.0007
      9 C3          0.7546   -0.8235   -0.3202 C.3       1 <0>         0.0190
     10 C4          2.7743    0.6162   -0.0996 C.2       1 <0>         0.0271
     11 C5         -1.4532    0.1285   -0.1045 C.3       1 <0>        -0.0004
     12 C6          2.2404   -0.5896   -0.3467 C.2       1 <0>        -0.0501
     13 C7         -1.9988   -0.8044   -1.1876 C.3       1 <0>        -0.0332
     14 C8          5.1122   -0.1341    0.1606 C.ar      1 <0>         0.0745
     15 C9         -3.4792   -1.1348   -0.9777 C.3       1 <0>         0.0116
     16 C10         4.7764    2.0483   -0.4927 C.2       1 <0>         0.3318
     17 C11         6.3596    0.4667    0.0023 C.ar      1 <0>         0.0674
     18 C12         5.0002   -1.4541    0.5505 C.ar      1 <0>        -0.0357
     19 C13        -4.3889    0.0822   -1.0689 C.2       1 <0>         0.1632
     20 C14         7.5417   -0.2068    0.2212 C.ar      1 <0>        -0.0362
     21 C15         6.1868   -2.1600    0.7787 C.ar      1 <0>        -0.0597
     22 C16         7.4441   -1.5430    0.6158 C.ar      1 <0>        -0.0597
     23 C17        -5.6719    0.0733   -0.3098 C.ar      1 <0>         0.0176
     24 C18        -6.2999   -1.1319   -0.0870 C.ar      1 <0>        -0.0486
     25 C19        -6.1824    1.2706    0.1400 C.ar      1 <0>        -0.0486
     26 C20        -7.5011   -1.1402    0.6221 C.ar      1 <0>        -0.0258
     27 C21        -7.3837    1.2624    0.8490 C.ar      1 <0>        -0.0258
     28 C22        -8.0431    0.0570    1.0899 C.ar      1 <0>         0.1234
     29 H1         -0.1443    2.2963    0.6198 H         1 <0>         0.0430
     30 H2          0.4500    0.9796    1.6367 H         1 <0>         0.0430
     31 H3          1.8644    2.4759   -0.6079 H         1 <0>         0.0340
     32 H4          2.3383    2.3496    1.0970 H         1 <0>         0.0340
     33 H5          0.5417   -1.4177   -1.2152 H         1 <0>         0.0470
     34 H6          0.5207   -1.4350    0.5607 H         1 <0>         0.0470
     35 H7         -1.6010   -0.3189    0.8870 H         1 <0>         0.0427
     36 H8         -2.0160    1.0688   -0.1202 H         1 <0>         0.0427
     37 H9          2.8132   -1.4386   -0.6955 H         1 <0>         0.0602
     38 H10        -1.8566   -0.3530   -2.1775 H         1 <0>         0.0282
     39 H11        -1.4788   -1.7676   -1.1895 H         1 <0>         0.0282
     40 H12        -3.5919   -1.6077    0.0045 H         1 <0>         0.0345
     41 H13        -3.8016   -1.8485   -1.7445 H         1 <0>         0.0345
     42 H14         6.9167    2.4491   -0.5770 H         1 <0>         0.1705
     43 H15         4.0722   -1.9633    0.7659 H         1 <0>         0.0639
     44 H16         8.5064    0.2703    0.0962 H         1 <0>         0.0639
     45 H17         6.1416   -3.1965    1.1038 H         1 <0>         0.0618
     46 H18         8.3481   -2.1161    0.8045 H         1 <0>         0.0618
     47 H19        -5.9085   -2.0748   -0.4549 H         1 <0>         0.0625
     48 H20        -5.6770    2.2152   -0.0359 H         1 <0>         0.0625
     49 H21        -8.0169   -2.0778    0.8070 H         1 <0>         0.0646
     50 H22        -7.8055    2.1941    1.2147 H         1 <0>         0.0646
@<TRIPOS>BOND
     1    1   28 1
     2    2   16 2
     3    3   19 2
     4    4    7 1
     5    4    9 1
     6    4   11 1
     7    5   10 1
     8    5   14 2
     9    5   16 am
    10    6   16 am
    11    6   17 2
    12    6   42 1
    13    7    8 1
    14    7   29 1
    15    7   30 1
    16    8   10 1
    17    8   31 1
    18    8   32 1
    19    9   12 1
    20    9   33 1
    21    9   34 1
    22   10   12 2
    23   11   13 1
    24   11   35 1
    25   11   36 1
    26   12   37 1
    27   13   15 1
    28   13   38 1
    29   13   39 1
    30   14   17 ar
    31   14   18 ar
    32   15   19 1
    33   15   40 1
    34   15   41 1
    35   17   20 ar
    36   18   21 ar
    37   18   43 1
    38   19   23 1
    39   20   22 ar
    40   20   44 1
    41   21   22 ar
    42   21   45 1
    43   22   46 1
    44   23   24 ar
    45   23   25 ar
    46   24   26 ar
    47   24   47 1
    48   25   27 ar
    49   25   48 1
    50   26   28 ar
    51   26   49 1
    52   27   28 ar
    53   27   50 1
