@<TRIPOS>MOLECULE
DB00839
   42    43     0     0     0
SMALL
USER_CHARGES

@<TRIPOS>ATOM
      1 S1          2.3337   -2.6236    0.6441 S.o2      1 <0>         0.0756
      2 O1         -0.0926   -0.8623    1.4553 O.2       1 <0>        -0.2499
      3 O2          2.0428   -2.6953    2.0632 O.2       1 <0>        -0.1499
      4 O3          2.9569   -3.7423   -0.0361 O.2       1 <0>        -0.1499
      5 N1         -2.2621   -0.4304   -0.2062 N.3       1 <0>        -0.2258
      6 N2         -1.1652   -1.1923   -0.5677 N.am      1 <0>        -0.2309
      7 N3          0.9188   -2.1646   -0.1981 N.am      1 <0>        -0.1683
      8 C1         -4.3904    1.8959    0.0853 C.3       1 <0>        -0.0518
      9 C2         -4.7974    0.6674    0.8958 C.3       1 <0>        -0.0518
     10 C3         -2.9295    1.9326   -0.3544 C.3       1 <0>        -0.0386
     11 C4         -4.7981   -0.6044    0.0531 C.3       1 <0>        -0.0386
     12 C5         -2.4325    0.7007   -1.1156 C.3       1 <0>         0.0168
     13 C6         -3.4355   -1.2940   -0.0680 C.3       1 <0>         0.0168
     14 C7         -0.1336   -1.3493    0.3291 C.2       1 <0>         0.3327
     15 C8          3.3491   -1.1975    0.4016 C.ar      1 <0>         0.1086
     16 C9          3.2935   -0.1638    1.3206 C.ar      1 <0>        -0.0348
     17 C10         4.1812   -1.1401   -0.7032 C.ar      1 <0>        -0.0348
     18 C11         4.9397    1.0362    0.0215 C.ar      1 <0>        -0.0503
     19 C12         4.0949    0.9618    1.1289 C.ar      1 <0>        -0.0570
     20 C13         4.9827   -0.0148   -0.8946 C.ar      1 <0>        -0.0570
     21 C14         5.7964    2.2395   -0.1834 C.3       1 <0>        -0.0397
     22 H1         -5.0336    1.9776   -0.8001 H         1 <0>         0.0266
     23 H2         -4.5881    2.7915    0.6874 H         1 <0>         0.0266
     24 H3         -4.1637    0.5549    1.7831 H         1 <0>         0.0266
     25 H4         -5.8192    0.8352    1.2588 H         1 <0>         0.0266
     26 H5         -2.7921    2.8131   -0.9952 H         1 <0>         0.0278
     27 H6         -2.2931    2.1002    0.5247 H         1 <0>         0.0278
     28 H7         -5.4939   -1.3230    0.5048 H         1 <0>         0.0278
     29 H8         -5.1951   -0.3889   -0.9469 H         1 <0>         0.0278
     30 H9         -3.0785    0.4598   -1.9689 H         1 <0>         0.0443
     31 H10        -1.4599    0.9817   -1.5441 H         1 <0>         0.0443
     32 H11        -3.2913   -1.9097    0.8299 H         1 <0>         0.0443
     33 H12        -3.5007   -1.9959   -0.9115 H         1 <0>         0.0443
     34 H13        -1.1451   -1.6182   -1.4890 H         1 <0>         0.1708
     35 H14         0.7892   -2.5583   -1.1387 H         1 <0>         0.1782
     36 H15         2.6401   -0.1988    2.1865 H         1 <0>         0.0637
     37 H16         4.2227   -1.9449   -1.4306 H         1 <0>         0.0637
     38 H17         4.0504    1.7754    1.8481 H         1 <0>         0.0621
     39 H18         5.6341    0.0330   -1.7633 H         1 <0>         0.0621
     40 H19         6.7258    1.9794   -0.7014 H         1 <0>         0.0278
     41 H20         5.2602    2.9856   -0.7782 H         1 <0>         0.0278
     42 H21         6.0791    2.6909    0.7737 H         1 <0>         0.0278
@<TRIPOS>BOND
     1    1    3 2
     2    1    4 2
     3    1    7 1
     4    1   15 1
     5    2   14 2
     6    5    6 1
     7    5   12 1
     8    5   13 1
     9    6   14 am
    10    6   34 1
    11    7   14 am
    12    7   35 1
    13    8    9 1
    14    8   10 1
    15    8   22 1
    16    8   23 1
    17    9   11 1
    18    9   24 1
    19    9   25 1
    20   10   12 1
    21   10   26 1
    22   10   27 1
    23   11   13 1
    24   11   28 1
    25   11   29 1
    26   12   30 1
    27   12   31 1
    28   13   32 1
    29   13   33 1
    30   15   16 ar
    31   15   17 ar
    32   16   19 ar
    33   16   36 1
    34   17   20 ar
    35   17   37 1
    36   18   19 ar
    37   18   20 ar
    38   18   21 1
    39   19   38 1
    40   20   39 1
    41   21   40 1
    42   21   41 1
    43   21   42 1
