@<TRIPOS>MOLECULE
DB00210
   59    64     0     0     0
SMALL
USER_CHARGES

@<TRIPOS>ATOM
      1 O1          3.1574    2.5511   -0.3287 O.3       1 <0>        -0.4948
      2 O2         -8.5857   -2.3692   -0.4010 O.3       1 <0>        -0.4771
      3 O3         -9.1530   -0.3743    0.5290 O.2       1 <0>        -0.2451
      4 C1          2.4235   -0.1847    0.0408 C.3       1 <0>        -0.0000
      5 C2          2.7507   -2.7103    0.3313 C.3       1 <0>        -0.0397
      6 C3          4.2992   -1.4252   -1.1727 C.3       1 <0>        -0.0397
      7 C4          4.4234   -1.1217    1.3260 C.3       1 <0>        -0.0397
      8 C5          1.7267   -1.5660    0.2432 C.3       1 <0>        -0.0404
      9 C6          3.2690   -0.2856   -1.2637 C.3       1 <0>        -0.0404
     10 C7          3.3936    0.0189    1.2423 C.3       1 <0>        -0.0404
     11 C8          3.5671   -2.7587   -0.9679 C.3       1 <0>        -0.0473
     12 C9          3.6906   -2.4566    1.5180 C.3       1 <0>        -0.0473
     13 C10         5.2342   -1.1695    0.0206 C.3       1 <0>        -0.0473
     14 C11         1.4247    0.9192   -0.0440 C.ar      1 <0>         0.0010
     15 C12         1.8347    2.2411   -0.2253 C.ar      1 <0>         0.1238
     16 C13         0.0649    0.6214    0.0597 C.ar      1 <0>        -0.0468
     17 C14        -0.8822    1.6426   -0.0177 C.ar      1 <0>        -0.0174
     18 C15         0.8876    3.2623   -0.3026 C.ar      1 <0>        -0.0191
     19 C16        -0.4709    2.9630   -0.1988 C.ar      1 <0>        -0.0506
     20 C17        -2.2913    1.3327    0.0906 C.ar      1 <0>        -0.0173
     21 C18         3.4882    3.9260   -0.5125 C.3       1 <0>         0.0788
     22 C19        -2.7700    0.0968   -0.3454 C.ar      1 <0>        -0.0463
     23 C20        -3.1692    2.2691    0.6288 C.ar      1 <0>        -0.0534
     24 C21        -4.1352   -0.2180   -0.2478 C.ar      1 <0>        -0.0173
     25 C22        -4.5286    1.9733    0.7333 C.ar      1 <0>        -0.0534
     26 C23        -5.0276    0.7343    0.2995 C.ar      1 <0>        -0.0171
     27 C24        -4.6343   -1.4569   -0.6815 C.ar      1 <0>        -0.0532
     28 C25        -6.3929    0.4197    0.3972 C.ar      1 <0>        -0.0400
     29 C26        -5.9937   -1.7527   -0.5769 C.ar      1 <0>        -0.0472
     30 C27        -6.8713   -0.8164   -0.0386 C.ar      1 <0>         0.0594
     31 C28        -8.2881   -1.1270    0.0694 C.2       1 <0>         0.3368
     32 H1          2.2281   -3.6632    0.4731 H         1 <0>         0.0301
     33 H2          4.8850   -1.4661   -2.0979 H         1 <0>         0.0301
     34 H3          5.0971   -0.9475    2.1726 H         1 <0>         0.0301
     35 H4          1.0491   -1.7944   -0.5912 H         1 <0>         0.0276
     36 H5          1.1419   -1.5821    1.1734 H         1 <0>         0.0276
     37 H6          3.8138    0.6376   -1.4833 H         1 <0>         0.0276
     38 H7          2.6084   -0.4567   -2.1247 H         1 <0>         0.0276
     39 H8          2.8223    0.0663    2.1797 H         1 <0>         0.0276
     40 H9          3.9464    0.9614    1.1805 H         1 <0>         0.0276
     41 H10         4.2910   -3.5817   -0.9256 H         1 <0>         0.0271
     42 H11         2.9067   -2.9597   -1.8203 H         1 <0>         0.0271
     43 H12         3.1193   -2.4406    2.4541 H         1 <0>         0.0271
     44 H13         4.4167   -3.2745    1.6029 H         1 <0>         0.0271
     45 H14         5.9906   -1.9618    0.0794 H         1 <0>         0.0271
     46 H15         5.7734   -0.2247   -0.1208 H         1 <0>         0.0271
     47 H16        -0.2890   -0.3829    0.2460 H         1 <0>         0.0628
     48 H17         1.1324    4.3087   -0.4491 H         1 <0>         0.0654
     49 H18        -1.1734    3.7863   -0.2959 H         1 <0>         0.0625
     50 H19         3.1827    4.5335    0.3462 H         1 <0>         0.0660
     51 H20         3.0959    4.3127   -1.4592 H         1 <0>         0.0660
     52 H21         4.5799    3.9884   -0.5725 H         1 <0>         0.0660
     53 H22        -2.1121   -0.6382   -0.8053 H         1 <0>         0.0630
     54 H23        -2.8384    3.2315    1.0098 H         1 <0>         0.0624
     55 H24        -5.1956    2.7177    1.1634 H         1 <0>         0.0624
     56 H25        -3.9667   -2.2042   -1.1055 H         1 <0>         0.0624
     57 H26        -7.0809    1.1511    0.8180 H         1 <0>         0.0632
     58 H27        -6.3233   -2.7265   -0.9282 H         1 <0>         0.0626
     59 H28        -9.5432   -2.5688   -0.3243 H         1 <0>         0.2954
@<TRIPOS>BOND
     1    1   15 1
     2    1   21 1
     3    2   31 1
     4    2   59 1
     5    3   31 2
     6    4    8 1
     7    4    9 1
     8    4   10 1
     9    4   14 1
    10    5    8 1
    11    5   11 1
    12    5   12 1
    13    5   32 1
    14    6    9 1
    15    6   11 1
    16    6   13 1
    17    6   33 1
    18    7   10 1
    19    7   12 1
    20    7   13 1
    21    7   34 1
    22    8   35 1
    23    8   36 1
    24    9   37 1
    25    9   38 1
    26   10   39 1
    27   10   40 1
    28   11   41 1
    29   11   42 1
    30   12   43 1
    31   12   44 1
    32   13   45 1
    33   13   46 1
    34   14   15 ar
    35   14   16 ar
    36   15   18 ar
    37   16   17 ar
    38   16   47 1
    39   17   19 ar
    40   17   20 1
    41   18   19 ar
    42   18   48 1
    43   19   49 1
    44   20   22 ar
    45   20   23 ar
    46   21   50 1
    47   21   51 1
    48   21   52 1
    49   22   24 ar
    50   22   53 1
    51   23   25 ar
    52   23   54 1
    53   24   26 ar
    54   24   27 ar
    55   25   26 ar
    56   25   55 1
    57   26   28 ar
    58   27   29 ar
    59   27   56 1
    60   28   30 ar
    61   28   57 1
    62   29   30 ar
    63   29   58 1
    64   30   31 1
