@<TRIPOS>MOLECULE
DB00358
   42    44     0     0     0
SMALL
USER_CHARGES

@<TRIPOS>ATOM
      1 F1          0.9506   -4.2317   -0.5863 F         1 <0>        -0.1644
      2 F2          3.0697   -3.9501   -0.9525 F         1 <0>        -0.1644
      3 F3          2.3025   -3.8845    1.0812 F         1 <0>        -0.1644
      4 F4          5.9382    1.3525    1.1778 F         1 <0>        -0.1658
      5 F5          4.8846   -0.3686    1.9725 F         1 <0>        -0.1658
      6 F6          5.6327   -0.4027   -0.0690 F         1 <0>        -0.1658
      7 O1         -1.3937   -0.5618   -2.3253 O.3       1 <0>        -0.3856
      8 N1         -3.1191    1.0846   -0.7905 N.3       1 <0>        -0.3106
      9 N2          2.8473   -1.2277    0.0640 N.ar      1 <0>        -0.2421
     10 C1         -1.8738    0.5401   -0.2349 C.3       1 <0>         0.0378
     11 C2         -2.1347   -0.7906    0.4843 C.3       1 <0>        -0.0348
     12 C3         -0.8643    0.3489   -1.3654 C.3       1 <0>         0.0961
     13 C4         -3.2019   -0.6356    1.5643 C.3       1 <0>        -0.0504
     14 C5         -4.4571    0.0109    0.9880 C.3       1 <0>        -0.0404
     15 C6         -4.1235    1.3052    0.2503 C.3       1 <0>        -0.0038
     16 C7          0.4581   -0.1722   -0.8582 C.ar      1 <0>        -0.0065
     17 C8          1.4918    0.6873   -0.4861 C.ar      1 <0>         0.0066
     18 C9          0.6054   -1.5433   -0.7745 C.ar      1 <0>        -0.0254
     19 C10         2.6908    0.1069   -0.0221 C.ar      1 <0>         0.0836
     20 C11         1.8149   -2.0181   -0.3092 C.ar      1 <0>         0.1446
     21 C12         1.3629    2.0845   -0.5627 C.ar      1 <0>        -0.0522
     22 C13         3.7280    0.9570    0.3519 C.ar      1 <0>         0.0807
     23 C14         2.4162    2.9109   -0.1820 C.ar      1 <0>        -0.0605
     24 C15         3.6002    2.3460    0.2758 C.ar      1 <0>        -0.0480
     25 C16         2.0294   -3.4907   -0.1965 C.3       1 <0>         0.4342
     26 C17         5.0230    0.3956    0.8518 C.3       1 <0>         0.4194
     27 H1         -1.4673    1.2618    0.4864 H         1 <0>         0.0489
     28 H2         -1.2371   -1.1552    0.9923 H         1 <0>         0.0281
     29 H3         -2.4607   -1.5663   -0.2199 H         1 <0>         0.0281
     30 H4         -0.7216    1.2780   -1.9256 H         1 <0>         0.0659
     31 H5         -2.8114   -0.0125    2.3785 H         1 <0>         0.0266
     32 H6         -3.4465   -1.6125    1.9956 H         1 <0>         0.0266
     33 H7         -4.9457   -0.6905    0.2997 H         1 <0>         0.0277
     34 H8         -5.1704    0.2167    1.7940 H         1 <0>         0.0277
     35 H9         -3.5005    0.4284   -1.4716 H         1 <0>         0.1223
     36 H10        -5.0318    1.7065   -0.2122 H         1 <0>         0.0424
     37 H11        -3.7681    2.0662    0.9554 H         1 <0>         0.0424
     38 H12        -0.1814   -2.2325   -1.0590 H         1 <0>         0.0642
     39 H13        -2.1143   -0.1117   -2.7974 H         1 <0>         0.2103
     40 H14         0.4545    2.5766   -0.8946 H         1 <0>         0.0624
     41 H15         2.3116    3.9901   -0.2382 H         1 <0>         0.0618
     42 H16         4.4125    3.0046    0.5701 H         1 <0>         0.0624
@<TRIPOS>BOND
     1    1   25 1
     2    2   25 1
     3    3   25 1
     4    4   26 1
     5    5   26 1
     6    6   26 1
     7    7   12 1
     8    7   39 1
     9    8   10 1
    10    8   15 1
    11    8   35 1
    12    9   19 ar
    13    9   20 ar
    14   10   11 1
    15   10   12 1
    16   10   27 1
    17   11   13 1
    18   11   28 1
    19   11   29 1
    20   12   16 1
    21   12   30 1
    22   13   14 1
    23   13   31 1
    24   13   32 1
    25   14   15 1
    26   14   33 1
    27   14   34 1
    28   15   36 1
    29   15   37 1
    30   16   17 ar
    31   16   18 ar
    32   17   19 ar
    33   17   21 ar
    34   18   20 ar
    35   18   38 1
    36   19   22 ar
    37   20   25 1
    38   21   23 ar
    39   21   40 1
    40   22   24 ar
    41   22   26 1
    42   23   24 ar
    43   23   41 1
    44   24   42 1
