@<TRIPOS>MOLECULE
DB00814
   36    38     0     0     0
SMALL
USER_CHARGES

@<TRIPOS>ATOM
      1 S1          1.7612   -1.6760    0.6856 S.o2      1 <0>         0.0754
      2 S2         -4.1015   -1.0165    0.5273 S.3       1 <0>        -0.0573
      3 O1          1.3137   -1.4953    2.0535 O.2       1 <0>        -0.1498
      4 O2          2.0562   -2.9953    0.1614 O.2       1 <0>        -0.1498
      5 O3          1.6332    2.6282    0.4634 O.3       1 <0>        -0.5040
      6 O4         -0.9414    2.2514   -0.6464 O.2       1 <0>        -0.2682
      7 N1          0.6921   -0.8564   -0.3954 N.pl3     1 <0>        -0.1975
      8 N2         -1.7636    0.1649    0.0726 N.am      1 <0>        -0.2595
      9 N3         -3.8377    1.4196   -0.2964 N.2       1 <0>        -0.2327
     10 C1          3.2008   -0.6848    0.5062 C.ar      1 <0>         0.1194
     11 C2          3.0183    0.6836    0.2740 C.ar      1 <0>         0.0451
     12 C3          0.5625    0.5518   -0.1140 C.2       1 <0>         0.1547
     13 C4          1.6590    1.2716    0.1989 C.2       1 <0>         0.1534
     14 C5          4.4616   -1.2749    0.5776 C.ar      1 <0>        -0.0344
     15 C6          0.8149   -1.1946   -1.8433 C.3       1 <0>         0.0239
     16 C7          4.1703    1.4698    0.1281 C.ar      1 <0>        -0.0491
     17 C8         -0.7909    1.0945   -0.2628 C.2       1 <0>         0.2689
     18 C9          5.5884   -0.4734    0.4253 C.ar      1 <0>        -0.0599
     19 C10         5.4442    0.8953    0.2022 C.ar      1 <0>        -0.0610
     20 C11        -3.1685    0.3417    0.0480 C.2       1 <0>         0.1648
     21 C12        -5.5269   -0.1014    0.2584 C.2       1 <0>         0.0080
     22 C13        -5.1895    1.1636   -0.1754 C.2       1 <0>         0.0397
     23 C14        -6.8567   -0.6956    0.4950 C.3       1 <0>        -0.0319
     24 H1          4.5817   -2.3387    0.7565 H         1 <0>         0.0637
     25 H2          0.0390   -0.6819   -2.4215 H         1 <0>         0.0446
     26 H3          1.7941   -0.9021   -2.2334 H         1 <0>         0.0446
     27 H4          0.6677   -2.2689   -1.9877 H         1 <0>         0.0446
     28 H5          4.1006    2.5394   -0.0561 H         1 <0>         0.0625
     29 H6          6.5801   -0.9126    0.4810 H         1 <0>         0.0618
     30 H7          6.3253    1.5197    0.0830 H         1 <0>         0.0618
     31 H8         -1.4725   -0.7614    0.3767 H         1 <0>         0.1571
     32 H9          0.7148    2.9403    0.4062 H         1 <0>         0.2923
     33 H10        -5.8950    1.9467   -0.4196 H         1 <0>         0.0838
     34 H11        -7.0140   -1.5715   -0.1432 H         1 <0>         0.0283
     35 H12        -6.9682   -1.0037    1.5399 H         1 <0>         0.0283
     36 H13        -7.6532    0.0228    0.2743 H         1 <0>         0.0283
@<TRIPOS>BOND
     1    1    3 2
     2    1    4 2
     3    1    7 1
     4    1   10 1
     5    2   20 1
     6    2   21 1
     7    5   13 1
     8    5   32 1
     9    6   17 2
    10    7   12 1
    11    7   15 1
    12    8   17 am
    13    8   20 1
    14    8   31 1
    15    9   20 2
    16    9   22 1
    17   10   11 ar
    18   10   14 ar
    19   11   13 1
    20   11   16 ar
    21   12   13 2
    22   12   17 1
    23   14   18 ar
    24   14   24 1
    25   15   25 1
    26   15   26 1
    27   15   27 1
    28   16   19 ar
    29   16   28 1
    30   18   19 ar
    31   18   29 1
    32   19   30 1
    33   21   22 2
    34   21   23 1
    35   22   33 1
    36   23   34 1
    37   23   35 1
    38   23   36 1
