@<TRIPOS>MOLECULE
DB00294
   52    55     0     0     0
SMALL
USER_CHARGES

@<TRIPOS>ATOM
      1 O1         -4.4750    0.4839    0.2631 O.3       1 <0>        -0.3760
      2 O2          6.4325   -0.3008    0.9382 O.2       1 <0>        -0.2927
      3 C1         -2.0266    0.2041    0.0178 C.3       1 <0>         0.0173
      4 C2         -1.1598   -1.0732    0.1414 C.3       1 <0>        -0.0280
      5 C3          0.2348   -0.9224   -0.4931 C.3       1 <0>        -0.0302
      6 C4          0.9834    0.2542    0.2192 C.3       1 <0>        -0.0105
      7 C5         -3.3548   -0.2950    0.6604 C.3       1 <0>         0.1322
      8 C6         -2.0872   -2.1803   -0.3513 C.3       1 <0>        -0.0458
      9 C7         -1.2872    1.3586    0.7283 C.3       1 <0>        -0.0222
     10 C8         -3.4964   -1.7326    0.0930 C.3       1 <0>        -0.0118
     11 C9          2.4759    0.3912   -0.2380 C.3       1 <0>        -0.0123
     12 C10         0.1068    1.5175    0.1303 C.2       1 <0>        -0.0720
     13 C11         1.0318   -2.2264   -0.3855 C.3       1 <0>        -0.0457
     14 C12        -2.2956    0.6283   -1.4594 C.3       1 <0>        -0.0461
     15 C13         2.4062   -2.0655   -1.0152 C.3       1 <0>        -0.0308
     16 C14         3.1829   -0.9547   -0.3612 C.2       1 <0>        -0.0626
     17 C15         3.2416    1.3066    0.7491 C.3       1 <0>        -0.0390
     18 C16        -3.1152    1.8896   -1.4968 C.3       1 <0>        -0.0646
     19 C17        -3.3212   -0.3382    2.1354 C.1       1 <0>        -0.0704
     20 C18         0.4421    2.6728   -0.4671 C.2       1 <0>        -0.0991
     21 C19         4.7358    1.3258    0.4754 C.3       1 <0>         0.0104
     22 C20         4.4468   -1.1774    0.0360 C.2       1 <0>        -0.0197
     23 C21         5.2908   -0.0720    0.5448 C.2       1 <0>         0.1561
     24 C22        -3.2941   -0.3729    3.3350 C.1       1 <0>        -0.1163
     25 H1         -0.9846   -1.2794    1.2097 H         1 <0>         0.0310
     26 H2          0.1335   -0.6899   -1.5608 H         1 <0>         0.0310
     27 H3          1.0236   -0.0028    1.2901 H         1 <0>         0.0354
     28 H4         -1.8276   -3.1511    0.0835 H         1 <0>         0.0269
     29 H5         -2.0459   -2.2855   -1.4411 H         1 <0>         0.0269
     30 H6         -1.1354    1.1138    1.7883 H         1 <0>         0.0317
     31 H7         -1.8329    2.3032    0.7554 H         1 <0>         0.0317
     32 H8         -4.1785   -1.7593   -0.7656 H         1 <0>         0.0303
     33 H9         -3.9026   -2.4329    0.8329 H         1 <0>         0.0303
     34 H10         2.5020    0.8415   -1.2396 H         1 <0>         0.0352
     35 H11         0.5032   -3.0362   -0.9014 H         1 <0>         0.0271
     36 H12         1.1318   -2.5274    0.6653 H         1 <0>         0.0271
     37 H13        -2.8095   -0.1539   -2.0286 H         1 <0>         0.0269
     38 H14        -1.3593    0.8083   -1.9972 H         1 <0>         0.0269
     39 H15         2.3001   -1.8399   -2.0838 H         1 <0>         0.0310
     40 H16         2.9400   -3.0213   -0.9488 H         1 <0>         0.0310
     41 H17         3.0766    0.9562    1.7775 H         1 <0>         0.0275
     42 H18         2.8700    2.3343    0.7104 H         1 <0>         0.0275
     43 H19        -4.1393    1.6692   -1.8214 H         1 <0>         0.0230
     44 H20        -3.1833    2.4973   -0.5972 H         1 <0>         0.0230
     45 H21        -2.7145    2.5490   -2.2775 H         1 <0>         0.0230
     46 H22        -4.4494    1.3254    0.7502 H         1 <0>         0.2114
     47 H23         1.3963    2.8254   -0.9549 H         1 <0>         0.0534
     48 H24        -0.2541    3.5049   -0.5038 H         1 <0>         0.0534
     49 H25         5.2362    1.9392    1.2325 H         1 <0>         0.0345
     50 H26         4.9558    1.7439   -0.5126 H         1 <0>         0.0345
     51 H27         4.9184   -2.1495   -0.0603 H         1 <0>         0.0652
     52 H28        -3.2691   -0.4037    4.3992 H         1 <0>         0.1229
@<TRIPOS>BOND
     1    1    7 1
     2    1   46 1
     3    2   23 2
     4    3    4 1
     5    3    7 1
     6    3    9 1
     7    3   14 1
     8    4    5 1
     9    4    8 1
    10    4   25 1
    11    5    6 1
    12    5   13 1
    13    5   26 1
    14    6   11 1
    15    6   12 1
    16    6   27 1
    17    7   10 1
    18    7   19 1
    19    8   10 1
    20    8   28 1
    21    8   29 1
    22    9   12 1
    23    9   30 1
    24    9   31 1
    25   10   32 1
    26   10   33 1
    27   11   16 1
    28   11   17 1
    29   11   34 1
    30   12   20 2
    31   13   15 1
    32   13   35 1
    33   13   36 1
    34   14   18 1
    35   14   37 1
    36   14   38 1
    37   15   16 1
    38   15   39 1
    39   15   40 1
    40   16   22 2
    41   17   21 1
    42   17   41 1
    43   17   42 1
    44   18   43 1
    45   18   44 1
    46   18   45 1
    47   19   24 3
    48   20   47 1
    49   20   48 1
    50   21   23 1
    51   21   49 1
    52   21   50 1
    53   22   23 1
    54   22   51 1
    55   24   52 1
