@<TRIPOS>MOLECULE
DB00607
   51    54     0     0     0
SMALL
USER_CHARGES

@<TRIPOS>ATOM
      1 S1         -2.1261   -1.7568    1.3306 S.3       1 <0>        -0.1273
      2 O1         -1.7950    0.3398   -2.5060 O.2       1 <0>        -0.2734
      3 O2         -6.2297   -0.4368   -0.3448 O.3       1 <0>        -0.4793
      4 O3         -5.1791   -2.4560   -0.4659 O.2       1 <0>        -0.2489
      5 O4          1.2541   -0.2273   -2.3838 O.2       1 <0>        -0.2700
      6 O5          1.0474    2.0491   -0.0054 O.3       1 <0>        -0.4915
      7 N1         -2.9339   -1.1699   -1.0957 N.am      1 <0>        -0.2708
      8 N2          0.2125   -1.1866   -0.5486 N.am      1 <0>        -0.2976
      9 C1         -2.1416   -2.2137   -0.4441 C.3       1 <0>         0.1005
     10 C2         -3.2589   -0.2966    1.1094 C.3       1 <0>         0.0417
     11 C3         -3.8811   -0.4238   -0.2993 C.3       1 <0>         0.1379
     12 C4         -0.9432   -1.7283   -1.2761 C.3       1 <0>         0.1279
     13 C5         -1.9019   -0.6518   -1.8212 C.2       1 <0>         0.2402
     14 C6         -4.2892   -0.2851    2.2433 C.3       1 <0>        -0.0484
     15 C7         -2.3955    0.9724    1.2087 C.3       1 <0>        -0.0484
     16 C8         -5.1368   -1.2379   -0.3792 C.2       1 <0>         0.3269
     17 C9          1.2298   -0.4692   -1.1798 C.2       1 <0>         0.2489
     18 C10         2.3235    0.0359   -0.3118 C.ar      1 <0>         0.0859
     19 C11         3.4563   -0.7378   -0.0701 C.ar      1 <0>        -0.0022
     20 C12         2.1601    1.2981    0.2342 C.ar      1 <0>         0.1332
     21 C13         4.4704   -0.2085    0.7634 C.ar      1 <0>        -0.0169
     22 C14         3.1571    1.8186    1.0537 C.ar      1 <0>        -0.0186
     23 C15         3.6215   -2.0177   -0.6243 C.ar      1 <0>        -0.0532
     24 C16         4.3054    1.0713    1.3174 C.ar      1 <0>        -0.0505
     25 C17         5.6195   -0.9745    1.0180 C.ar      1 <0>        -0.0540
     26 C18         4.7696   -2.7649   -0.3606 C.ar      1 <0>        -0.0611
     27 C19         5.7668   -2.2444    0.4589 C.ar      1 <0>        -0.0612
     28 C20         1.2437    3.3143   -0.6322 C.3       1 <0>         0.0868
     29 C21         0.0519    3.6491   -1.4617 C.3       1 <0>        -0.0307
     30 H1         -2.4904   -3.2262   -0.6661 H         1 <0>         0.0640
     31 H2         -4.0423    0.5526   -0.7712 H         1 <0>         0.0631
     32 H3         -0.6297   -2.4425   -2.0469 H         1 <0>         0.0622
     33 H4         -3.8090   -0.1550    3.2207 H         1 <0>         0.0244
     34 H5         -4.9945    0.5442    2.1169 H         1 <0>         0.0244
     35 H6         -4.8709   -1.2126    2.2876 H         1 <0>         0.0244
     36 H7         -3.0163    1.8681    1.0864 H         1 <0>         0.0244
     37 H8         -1.9018    1.0518    2.1845 H         1 <0>         0.0244
     38 H9         -1.6191    1.0135    0.4386 H         1 <0>         0.0244
     39 H10         0.2867   -1.3285    0.4561 H         1 <0>         0.1499
     40 H11        -7.0631   -0.9517   -0.3955 H         1 <0>         0.2951
     41 H12         3.0528    2.8021    1.5040 H         1 <0>         0.0654
     42 H13         2.8689   -2.4625   -1.2707 H         1 <0>         0.0624
     43 H14         5.0712    1.4972    1.9625 H         1 <0>         0.0625
     44 H15         6.4118   -0.5877    1.6556 H         1 <0>         0.0624
     45 H16         4.8853   -3.7534   -0.7955 H         1 <0>         0.0618
     46 H17         6.6605   -2.8266    0.6636 H         1 <0>         0.0618
     47 H18         1.3839    4.0730    0.1455 H         1 <0>         0.0694
     48 H19         2.1371    3.3009   -1.2694 H         1 <0>         0.0694
     49 H20         0.1645    4.6250   -1.9424 H         1 <0>         0.0262
     50 H21        -0.1055    2.8941   -2.2395 H         1 <0>         0.0262
     51 H22        -0.8576    3.6634   -0.8517 H         1 <0>         0.0262
@<TRIPOS>BOND
     1    1    9 1
     2    1   10 1
     3    2   13 2
     4    3   16 1
     5    3   40 1
     6    4   16 2
     7    5   17 2
     8    6   20 1
     9    6   28 1
    10    7    9 1
    11    7   11 1
    12    7   13 am
    13    8   12 1
    14    8   17 am
    15    8   39 1
    16    9   12 1
    17    9   30 1
    18   10   11 1
    19   10   14 1
    20   10   15 1
    21   11   16 1
    22   11   31 1
    23   12   13 1
    24   12   32 1
    25   14   33 1
    26   14   34 1
    27   14   35 1
    28   15   36 1
    29   15   37 1
    30   15   38 1
    31   17   18 1
    32   18   19 ar
    33   18   20 ar
    34   19   21 ar
    35   19   23 ar
    36   20   22 ar
    37   21   24 ar
    38   21   25 ar
    39   22   24 ar
    40   22   41 1
    41   23   26 ar
    42   23   42 1
    43   24   43 1
    44   25   27 ar
    45   25   44 1
    46   26   27 ar
    47   26   45 1
    48   27   46 1
    49   28   29 1
    50   28   47 1
    51   28   48 1
    52   29   49 1
    53   29   50 1
    54   29   51 1
