@<TRIPOS>MOLECULE
DB00530
   52    54     0     0     0
SMALL
USER_CHARGES

@<TRIPOS>ATOM
      1 O1          1.6094    1.2543   -1.0441 O.3       1 <0>        -0.4860
      2 O2          2.9605   -1.1441   -0.6645 O.3       1 <0>        -0.4860
      3 O3          3.6353    2.2545    0.6113 O.3       1 <0>        -0.3796
      4 O4          5.7418   -1.3752   -0.4318 O.3       1 <0>        -0.3796
      5 N1         -3.3137    0.0125   -1.0690 N.pl3     1 <0>        -0.2988
      6 N2         -1.1811   -3.4902   -0.5099 N.ar      1 <0>        -0.2352
      7 N3         -3.2729   -2.3184   -0.7512 N.ar      1 <0>        -0.2200
      8 C1         -1.1788   -1.1135   -0.8319 C.ar      1 <0>         0.0441
      9 C2         -0.5089   -2.3330   -0.6401 C.ar      1 <0>         0.0797
     10 C3          0.9248    0.0852   -0.9112 C.ar      1 <0>         0.1628
     11 C4          1.5994   -1.1157   -0.7218 C.ar      1 <0>         0.1641
     12 C5         -0.4655    0.0902   -0.9668 C.ar      1 <0>        -0.0038
     13 C6         -2.5688   -1.1778   -0.8780 C.ar      1 <0>         0.1340
     14 C7          0.8828   -2.3088   -0.5885 C.ar      1 <0>         0.0098
     15 C8          1.3443    2.2746   -0.0828 C.3       1 <0>         0.1130
     16 C9         -4.5940    0.4062   -0.6491 C.ar      1 <0>         0.0335
     17 C10         3.5541   -2.1625    0.1382 C.3       1 <0>         0.1130
     18 C11        -2.5263   -3.4201   -0.5721 C.ar      1 <0>         0.1187
     19 C12         2.6004    3.0993    0.1227 C.3       1 <0>         0.0814
     20 C13         4.8849   -1.6630    0.6666 C.3       1 <0>         0.0814
     21 C14        -5.1215   -0.0918    0.5423 C.ar      1 <0>        -0.0251
     22 C15        -5.3387    1.2957   -1.4235 C.ar      1 <0>        -0.0404
     23 C16        -6.3939    0.2997    0.9590 C.ar      1 <0>         0.0264
     24 C17        -6.6109    1.6873   -1.0068 C.ar      1 <0>        -0.0589
     25 C18        -7.1386    1.1891    0.1845 C.ar      1 <0>        -0.0462
     26 C19         4.8466    2.9724    0.8020 C.3       1 <0>         0.0366
     27 C20         7.0001   -0.8809    0.0052 C.3       1 <0>         0.0366
     28 C21        -6.9349   -0.2102    2.1792 C.1       1 <0>        -0.0696
     29 C22        -7.3896   -0.6387    3.2048 C.1       1 <0>        -0.1139
     30 H1         -0.9760    1.0377   -1.1171 H         1 <0>         0.0663
     31 H2          1.3929   -3.2626   -0.4707 H         1 <0>         0.0677
     32 H3         -2.9354    0.5999   -1.8072 H         1 <0>         0.1536
     33 H4          1.0469    1.8267    0.8742 H         1 <0>         0.0720
     34 H5          0.5321    2.9105   -0.4505 H         1 <0>         0.0720
     35 H6          2.9306   -2.4185    1.0037 H         1 <0>         0.0720
     36 H7          3.7127   -3.0480   -0.4878 H         1 <0>         0.0720
     37 H8         -3.0620   -4.3555   -0.4662 H         1 <0>         0.1048
     38 H9          2.9183    3.5326   -0.8327 H         1 <0>         0.0593
     39 H10         2.4067    3.9043    0.8400 H         1 <0>         0.0593
     40 H11         4.7321   -0.7458    1.2473 H         1 <0>         0.0593
     41 H12         5.3445   -2.4254    1.3050 H         1 <0>         0.0593
     42 H13        -4.5427   -0.7748    1.1607 H         1 <0>         0.0648
     43 H14        -4.9403    1.6910   -2.3545 H         1 <0>         0.0636
     44 H15        -7.1907    2.3798   -1.6099 H         1 <0>         0.0619
     45 H16        -8.1318    1.5038    0.4956 H         1 <0>         0.0630
     46 H17         5.5991    2.2803    1.1890 H         1 <0>         0.0524
     47 H18         4.7059    3.7772    1.5299 H         1 <0>         0.0524
     48 H19         5.2039    3.3806   -0.1483 H         1 <0>         0.0524
     49 H20         6.8739    0.0515    0.5638 H         1 <0>         0.0524
     50 H21         7.5106   -1.6249    0.6241 H         1 <0>         0.0524
     51 H22         7.6153   -0.6786   -0.8757 H         1 <0>         0.0524
     52 H23        -7.7928   -1.0186    4.1142 H         1 <0>         0.1232
@<TRIPOS>BOND
     1    1   10 1
     2    1   15 1
     3    2   11 1
     4    2   17 1
     5    3   19 1
     6    3   26 1
     7    4   20 1
     8    4   27 1
     9    5   13 1
    10    5   16 1
    11    5   32 1
    12    6    9 ar
    13    6   18 ar
    14    7   13 ar
    15    7   18 ar
    16    8    9 ar
    17    8   12 ar
    18    8   13 ar
    19    9   14 ar
    20   10   11 ar
    21   10   12 ar
    22   11   14 ar
    23   12   30 1
    24   14   31 1
    25   15   19 1
    26   15   33 1
    27   15   34 1
    28   16   21 ar
    29   16   22 ar
    30   17   20 1
    31   17   35 1
    32   17   36 1
    33   18   37 1
    34   19   38 1
    35   19   39 1
    36   20   40 1
    37   20   41 1
    38   21   23 ar
    39   21   42 1
    40   22   24 ar
    41   22   43 1
    42   23   25 ar
    43   23   28 1
    44   24   25 ar
    45   24   44 1
    46   25   45 1
    47   26   46 1
    48   26   47 1
    49   26   48 1
    50   27   49 1
    51   27   50 1
    52   27   51 1
    53   28   29 3
    54   29   52 1
