@<TRIPOS>MOLECULE
DB00871
   35    35     0     0     0
SMALL
USER_CHARGES

@<TRIPOS>ATOM
      1 O1          0.4048   -0.5496    2.3356 O.3       1 <0>        -0.3859
      2 O2          3.8418    2.6473    0.1404 O.3       1 <0>        -0.5066
      3 O3          4.9759   -1.8909   -0.8104 O.3       1 <0>        -0.5066
      4 N1         -1.8841   -0.5977    0.5914 N.3       1 <0>        -0.3085
      5 C1         -2.9373    0.0648   -0.1850 C.3       1 <0>         0.0108
      6 C2         -0.5709   -0.1663    0.1433 C.3       1 <0>         0.0266
      7 C3          0.5351   -0.8590    0.9488 C.3       1 <0>         0.0928
      8 C4         -4.2987   -0.4133    0.3309 C.3       1 <0>        -0.0473
      9 C5         -2.8049    1.5794    0.0064 C.3       1 <0>        -0.0473
     10 C6         -2.7794   -0.2949   -1.6670 C.3       1 <0>        -0.0473
     11 C7          1.9096   -0.4201    0.4935 C.ar      1 <0>        -0.0111
     12 C8          2.8105   -1.3725    0.0497 C.ar      1 <0>        -0.0143
     13 C9          2.2365    0.9244    0.5306 C.ar      1 <0>        -0.0143
     14 C10         3.5037    1.3291    0.1110 C.ar      1 <0>         0.1207
     15 C11         4.0778   -0.9678   -0.3701 C.ar      1 <0>         0.1207
     16 C12         4.4245    0.3829   -0.3394 C.ar      1 <0>         0.0213
     17 H1         -1.9649   -1.6098    0.4951 H         1 <0>         0.1225
     18 H2         -0.3881   -0.3951   -0.9112 H         1 <0>         0.0453
     19 H3         -0.4590    0.9097    0.2918 H         1 <0>         0.0453
     20 H4          0.4371   -1.9475    0.8506 H         1 <0>         0.0656
     21 H5         -4.4273   -0.1778    1.3939 H         1 <0>         0.0247
     22 H6         -5.1198    0.0657   -0.2147 H         1 <0>         0.0247
     23 H7         -4.4129   -1.4973    0.2128 H         1 <0>         0.0247
     24 H8         -1.9734    2.0229   -0.5517 H         1 <0>         0.0247
     25 H9         -2.7007    1.8490    1.0643 H         1 <0>         0.0247
     26 H10        -3.7078    2.0850   -0.3591 H         1 <0>         0.0247
     27 H11        -2.6715   -1.3761   -1.8136 H         1 <0>         0.0247
     28 H12        -3.6721    0.0123   -2.2263 H         1 <0>         0.0247
     29 H13        -1.9368    0.2075   -2.1533 H         1 <0>         0.0247
     30 H14         2.5466   -2.4262    0.0231 H         1 <0>         0.0658
     31 H15         1.5375    1.6714    0.8952 H         1 <0>         0.0658
     32 H16        -0.4958   -0.7984    2.6050 H         1 <0>         0.2103
     33 H17         5.4122    0.6984   -0.6669 H         1 <0>         0.0691
     34 H18         4.7533    2.7467   -0.1841 H         1 <0>         0.2921
     35 H19         5.7986   -1.4365   -1.0606 H         1 <0>         0.2921
@<TRIPOS>BOND
     1    1    7 1
     2    1   32 1
     3    2   14 1
     4    2   34 1
     5    3   15 1
     6    3   35 1
     7    4    5 1
     8    4    6 1
     9    4   17 1
    10    5    8 1
    11    5    9 1
    12    5   10 1
    13    6    7 1
    14    6   18 1
    15    6   19 1
    16    7   11 1
    17    7   20 1
    18    8   21 1
    19    8   22 1
    20    8   23 1
    21    9   24 1
    22    9   25 1
    23    9   26 1
    24   10   27 1
    25   10   28 1
    26   10   29 1
    27   11   12 ar
    28   11   13 ar
    29   12   15 ar
    30   12   30 1
    31   13   14 ar
    32   13   31 1
    33   14   16 ar
    34   15   16 ar
    35   16   33 1
