@<TRIPOS>MOLECULE
DB00233
   18    18     0     0     0
SMALL
USER_CHARGES

@<TRIPOS>ATOM
      1 O1         -0.9534   -2.3444    0.0453 O.3       1 <0>        -0.5059
      2 O2         -2.9802    1.1862    0.4382 O.3       1 <0>        -0.4770
      3 O3         -3.1605   -0.8268   -0.6019 O.2       1 <0>        -0.2450
      4 N1          3.2002    0.0768    0.0473 N.pl3     1 <0>        -0.3579
      5 C1         -0.9980    0.0507   -0.0755 C.ar      1 <0>         0.1002
      6 C2         -0.2952   -1.1516    0.0047 C.ar      1 <0>         0.1326
      7 C3          1.7905    0.0678    0.0061 C.ar      1 <0>         0.0281
      8 C4          1.0991   -1.1431    0.0455 C.ar      1 <0>         0.0013
      9 C5         -0.3066    1.2614   -0.1149 C.ar      1 <0>        -0.0425
     10 C6          1.0875    1.2700   -0.0740 C.ar      1 <0>        -0.0400
     11 C7         -2.4538    0.0630   -0.1206 C.2       1 <0>         0.3404
     12 H1          1.6418   -2.0835    0.1082 H         1 <0>         0.0673
     13 H2         -0.8251    2.2136   -0.1903 H         1 <0>         0.0627
     14 H3          1.6153    2.2198   -0.1082 H         1 <0>         0.0636
     15 H4          3.7020    0.9544    0.0195 H         1 <0>         0.1423
     16 H5          3.7106   -0.7945    0.1059 H         1 <0>         0.1423
     17 H6         -1.9136   -2.2059    0.0608 H         1 <0>         0.2922
     18 H7         -3.9606    1.1861    0.4037 H         1 <0>         0.2954
@<TRIPOS>BOND
     1    1    6 1
     2    1   17 1
     3    2   11 1
     4    2   18 1
     5    3   11 2
     6    4    7 1
     7    4   15 1
     8    4   16 1
     9    5    6 ar
    10    5    9 ar
    11    5   11 1
    12    6    8 ar
    13    7    8 ar
    14    7   10 ar
    15    8   12 1
    16    9   10 ar
    17    9   13 1
    18   10   14 1
