@<TRIPOS>MOLECULE
DB00260
   13    13     0     0     0
SMALL
USER_CHARGES

@<TRIPOS>ATOM
      1 O1         -1.5632   -1.0470    0.2126 O.3       1 <0>        -0.2778
      2 O2         -0.4933    2.2547   -0.1395 O.2       1 <0>        -0.2719
      3 N1         -1.7922    0.3267   -0.0200 N.am      1 <0>        -0.1932
      4 N2          1.6576    0.3860   -0.4455 N.3       1 <0>        -0.3180
      5 C1          0.4756    0.0783    0.3343 C.3       1 <0>         0.1101
      6 C2         -0.1751   -1.2279   -0.0770 C.3       1 <0>         0.0969
      7 C3         -0.6186    1.0501    0.0201 C.2       1 <0>         0.2548
      8 H1          0.6722    0.1091    1.4114 H         1 <0>         0.0579
      9 H2         -0.0742   -1.4417   -1.1484 H         1 <0>         0.0604
     10 H3          0.2154   -2.0799    0.4879 H         1 <0>         0.0604
     11 H4         -2.7315    0.6443   -0.2221 H         1 <0>         0.1825
     12 H5          2.3710   -0.3230   -0.2810 H         1 <0>         0.1190
     13 H6          2.0565    1.2703   -0.1328 H         1 <0>         0.1190
@<TRIPOS>BOND
     1    1    3 1
     2    1    6 1
     3    2    7 2
     4    3    7 am
     5    3   11 1
     6    4    5 1
     7    4   12 1
     8    4   13 1
     9    5    6 1
    10    5    7 1
    11    5    8 1
    12    6    9 1
    13    6   10 1
