@<TRIPOS>MOLECULE
DB00281
   39    39     0     0     0
SMALL
USER_CHARGES

@<TRIPOS>ATOM
      1 O1         -0.0798    0.1204    1.5888 O.2       1 <0>        -0.2741
      2 N1         -2.5278    0.1047    0.3158 N.3       1 <0>        -0.2945
      3 N2          0.9592    0.4090   -0.4968 N.am      1 <0>        -0.2840
      4 C1         -1.3965    0.7745   -0.3244 C.3       1 <0>         0.0760
      5 C2         -2.3612   -1.3471    0.2589 C.3       1 <0>        -0.0035
      6 C3         -3.7833    0.5007   -0.3211 C.3       1 <0>        -0.0035
      7 C4          2.3156    0.1152   -0.2196 C.ar      1 <0>         0.0393
      8 C5         -0.1126    0.3956    0.3935 C.2       1 <0>         0.2313
      9 C6          3.1682    1.1370    0.1713 C.ar      1 <0>        -0.0290
     10 C7          2.7696   -1.1895   -0.3445 C.ar      1 <0>        -0.0290
     11 C8         -3.5286   -2.0601    0.9201 C.3       1 <0>        -0.0523
     12 C9         -4.0026    2.0004   -0.2173 C.3       1 <0>        -0.0523
     13 C10         4.5054    0.8478    0.4433 C.ar      1 <0>        -0.0571
     14 C11         4.1067   -1.4786   -0.0723 C.ar      1 <0>        -0.0571
     15 C12         2.6955    2.5481    0.3099 C.3       1 <0>        -0.0379
     16 C13         1.8645   -2.3021   -0.7643 C.3       1 <0>        -0.0379
     17 C14         4.9745   -0.4600    0.3216 C.ar      1 <0>        -0.0611
     18 H1         -1.3361    0.5218   -1.3905 H         1 <0>         0.0522
     19 H2         -1.4525    1.8641   -0.2299 H         1 <0>         0.0522
     20 H3         -2.2638   -1.7003   -0.7761 H         1 <0>         0.0424
     21 H4         -1.4636   -1.6766    0.7907 H         1 <0>         0.0424
     22 H5         -3.8260    0.1912   -1.3730 H         1 <0>         0.0424
     23 H6         -4.6401    0.0508    0.1903 H         1 <0>         0.0424
     24 H7          0.8089    0.8436   -1.4048 H         1 <0>         0.1549
     25 H8         -3.7626   -1.6349    1.9021 H         1 <0>         0.0242
     26 H9         -4.4310   -2.0539    0.3011 H         1 <0>         0.0242
     27 H10        -3.2706   -3.1138    1.0767 H         1 <0>         0.0242
     28 H11        -3.8419    2.3647    0.8032 H         1 <0>         0.0242
     29 H12        -3.3625    2.5654   -0.9016 H         1 <0>         0.0242
     30 H13        -5.0369    2.2397   -0.4897 H         1 <0>         0.0242
     31 H14         5.1952    1.6288    0.7518 H         1 <0>         0.0621
     32 H15         4.4892   -2.4921   -0.1609 H         1 <0>         0.0621
     33 H16         2.2503    2.8992   -0.6268 H         1 <0>         0.0278
     34 H17         1.9563    2.6259    1.1138 H         1 <0>         0.0278
     35 H18         3.5168    3.2313    0.5520 H         1 <0>         0.0278
     36 H19         1.3743   -2.0639   -1.7143 H         1 <0>         0.0278
     37 H20         2.4119   -3.2394   -0.9117 H         1 <0>         0.0278
     38 H21         1.1022   -2.4822    0.0007 H         1 <0>         0.0278
     39 H22         6.0156   -0.6854    0.5340 H         1 <0>         0.0618
@<TRIPOS>BOND
     1    1    8 2
     2    2    4 1
     3    2    5 1
     4    2    6 1
     5    3    7 1
     6    3    8 am
     7    3   24 1
     8    4    8 1
     9    4   18 1
    10    4   19 1
    11    5   11 1
    12    5   20 1
    13    5   21 1
    14    6   12 1
    15    6   22 1
    16    6   23 1
    17    7    9 ar
    18    7   10 ar
    19    9   13 ar
    20    9   15 1
    21   10   14 ar
    22   10   16 1
    23   11   25 1
    24   11   26 1
    25   11   27 1
    26   12   28 1
    27   12   29 1
    28   12   30 1
    29   13   17 ar
    30   13   31 1
    31   14   17 ar
    32   14   32 1
    33   15   33 1
    34   15   34 1
    35   15   35 1
    36   16   36 1
    37   16   37 1
    38   16   38 1
    39   17   39 1
