@<TRIPOS>MOLECULE
DB00788
   31    32     0     0     0
SMALL
USER_CHARGES

@<TRIPOS>ATOM
      1 O1         -4.6027   -0.6069   -0.0986 O.3       1 <0>        -0.4951
      2 O2          5.0512    0.8432   -1.1096 O.3       1 <0>        -0.4802
      3 O3          2.9795    0.9978   -2.0156 O.2       1 <0>        -0.2503
      4 C1          3.2453   -0.2395    0.0736 C.3       1 <0>         0.0784
      5 C2          1.7854   -0.5399    0.0254 C.ar      1 <0>        -0.0334
      6 C3         -0.5210    0.2341    0.0352 C.ar      1 <0>        -0.0174
      7 C4         -0.9640   -1.1062   -0.0659 C.ar      1 <0>        -0.0144
      8 C5          0.8573    0.5004    0.0798 C.ar      1 <0>        -0.0501
      9 C6          1.3498   -1.8579   -0.0742 C.ar      1 <0>        -0.0572
     10 C7         -0.0158   -2.1407   -0.1196 C.ar      1 <0>        -0.0536
     11 C8          3.6930    0.4553    1.3757 C.3       1 <0>        -0.0482
     12 C9         -1.4691    1.2687    0.0888 C.ar      1 <0>        -0.0506
     13 C10        -2.3421   -1.3725   -0.1106 C.ar      1 <0>        -0.0122
     14 C11        -3.2702   -0.3322   -0.0563 C.ar      1 <0>         0.1207
     15 C12         3.7148    0.5946   -1.1237 C.2       1 <0>         0.3119
     16 C13        -2.8346    0.9858    0.0433 C.ar      1 <0>        -0.0194
     17 C14        -5.4967    0.5033   -0.0367 C.3       1 <0>         0.0788
     18 H1          3.8000   -1.1853   -0.0000 H         1 <0>         0.0459
     19 H2          1.2002    1.5307    0.1587 H         1 <0>         0.0627
     20 H3          2.0591   -2.6801   -0.1176 H         1 <0>         0.0621
     21 H4         -0.3337   -3.1784   -0.1976 H         1 <0>         0.0624
     22 H5          4.7850    0.5200    1.4341 H         1 <0>         0.0241
     23 H6          3.3011    1.4762    1.4438 H         1 <0>         0.0241
     24 H7          3.3442   -0.1012    2.2526 H         1 <0>         0.0241
     25 H8         -1.1502    2.3062    0.1668 H         1 <0>         0.0625
     26 H9         -2.6994   -2.3979   -0.1881 H         1 <0>         0.0660
     27 H10        -3.5004    1.8407    0.0900 H         1 <0>         0.0654
     28 H11         5.3318    1.3745   -1.8851 H         1 <0>         0.2951
     29 H12        -6.5144    0.1016   -0.0822 H         1 <0>         0.0660
     30 H13        -5.3761    1.1660   -0.9004 H         1 <0>         0.0660
     31 H14        -5.4072    1.0398    0.9141 H         1 <0>         0.0660
@<TRIPOS>BOND
     1    1   14 1
     2    1   17 1
     3    2   15 1
     4    2   28 1
     5    3   15 2
     6    4    5 1
     7    4   11 1
     8    4   15 1
     9    4   18 1
    10    5    8 ar
    11    5    9 ar
    12    6    7 ar
    13    6    8 ar
    14    6   12 ar
    15    7   10 ar
    16    7   13 ar
    17    8   19 1
    18    9   10 ar
    19    9   20 1
    20   10   21 1
    21   11   22 1
    22   11   23 1
    23   11   24 1
    24   12   16 ar
    25   12   25 1
    26   13   14 ar
    27   13   26 1
    28   14   16 ar
    29   16   27 1
    30   17   29 1
    31   17   30 1
    32   17   31 1
