@<TRIPOS>MOLECULE
DB00581
   45    46     0     0     0
SMALL
USER_CHARGES

@<TRIPOS>ATOM
      1 O1         -0.3126    0.9321   -0.3711 O.3       1 <0>        -0.3400
      2 O2         -3.3902    0.4376    0.1143 O.3       1 <0>        -0.3364
      3 O3          1.3617   -0.6682   -0.0802 O.3       1 <0>        -0.3405
      4 O4         -1.9926   -2.2537   -0.2051 O.3       1 <0>        -0.3837
      5 O5         -3.5130   -1.2691    1.7486 O.3       1 <0>        -0.3608
      6 O6          1.6756    2.8709   -0.9679 O.3       1 <0>        -0.3841
      7 O7          4.2382    2.2897    0.2409 O.3       1 <0>        -0.3864
      8 O8          3.5550   -0.0193    1.6306 O.3       1 <0>        -0.3865
      9 O9         -4.5788    0.6182   -2.3938 O.3       1 <0>        -0.3924
     10 O10        -3.3023    1.2364    2.7888 O.3       1 <0>        -0.3896
     11 O11         1.9176   -3.3479   -0.3056 O.3       1 <0>        -0.3924
     12 C1         -1.2332   -0.0666   -0.7975 C.3       1 <0>         0.1210
     13 C2         -1.5275   -1.0216    0.3419 C.3       1 <0>         0.1396
     14 C3         -2.5853    0.5908   -1.0718 C.3       1 <0>         0.1138
     15 C4         -2.6682   -0.3294    1.0912 C.3       1 <0>         0.2205
     16 C5          1.0295    0.5740   -0.6989 C.3       1 <0>         0.1884
     17 C6          1.9482    1.6945   -0.2066 C.3       1 <0>         0.1341
     18 C7          3.4162    1.3086   -0.3852 C.3       1 <0>         0.1141
     19 C8          3.6977   -0.0717    0.2096 C.3       1 <0>         0.1119
     20 C9          2.7029   -1.0919   -0.3547 C.3       1 <0>         0.1130
     21 C10        -3.3403   -0.0518   -2.2276 C.3       1 <0>         0.0730
     22 C11        -2.1775    0.6425    2.1637 C.3       1 <0>         0.1006
     23 C12         2.8784   -2.4750    0.2613 C.3       1 <0>         0.0730
     24 H1         -0.8650   -0.5638   -1.7038 H         1 <0>         0.0651
     25 H2         -0.6961   -1.2480    1.0136 H         1 <0>         0.0675
     26 H3         -2.4883    1.6681   -1.2500 H         1 <0>         0.0647
     27 H4          1.1041    0.4806   -1.7911 H         1 <0>         0.0938
     28 H5          1.7408    1.9430    0.8412 H         1 <0>         0.0671
     29 H6          3.6744    1.3093   -1.4516 H         1 <0>         0.0648
     30 H7          4.7318   -0.3681    0.0050 H         1 <0>         0.0647
     31 H8          2.8120   -1.1747   -1.4440 H         1 <0>         0.0647
     32 H9         -3.5604   -1.1070   -2.0402 H         1 <0>         0.0584
     33 H10        -2.7769    0.0303   -3.1618 H         1 <0>         0.0584
     34 H11        -1.5715    1.4507    1.7463 H         1 <0>         0.0612
     35 H12        -1.6033    0.1172    2.9341 H         1 <0>         0.0612
     36 H13         2.7123   -2.4668    1.3432 H         1 <0>         0.0584
     37 H14         3.8764   -2.8754    0.0605 H         1 <0>         0.0584
     38 H15        -1.2566   -2.6459   -0.7050 H         1 <0>         0.2101
     39 H16        -3.9975   -0.8076    2.4537 H         1 <0>         0.2129
     40 H17         0.7318    3.0771   -0.8564 H         1 <0>         0.2101
     41 H18         4.0146    3.1509   -0.1516 H         1 <0>         0.2100
     42 H19         2.6122    0.0929    1.8391 H         1 <0>         0.2100
     43 H20        -5.0671    0.5437   -1.5561 H         1 <0>         0.2095
     44 H21        -2.9655    1.8401    3.4725 H         1 <0>         0.2096
     45 H22         1.0382   -2.9755   -0.1223 H         1 <0>         0.2095
@<TRIPOS>BOND
     1    1   12 1
     2    1   16 1
     3    2   14 1
     4    2   15 1
     5    3   16 1
     6    3   20 1
     7    4   13 1
     8    4   38 1
     9    5   15 1
    10    5   39 1
    11    6   17 1
    12    6   40 1
    13    7   18 1
    14    7   41 1
    15    8   19 1
    16    8   42 1
    17    9   21 1
    18    9   43 1
    19   10   22 1
    20   10   44 1
    21   11   23 1
    22   11   45 1
    23   12   13 1
    24   12   14 1
    25   12   24 1
    26   13   15 1
    27   13   25 1
    28   14   21 1
    29   14   26 1
    30   15   22 1
    31   16   17 1
    32   16   27 1
    33   17   18 1
    34   17   28 1
    35   18   19 1
    36   18   29 1
    37   19   20 1
    38   19   30 1
    39   20   23 1
    40   20   31 1
    41   21   32 1
    42   21   33 1
    43   22   34 1
    44   22   35 1
    45   23   36 1
    46   23   37 1
