@<TRIPOS>MOLECULE
DB00827
   29    31     0     0     0
SMALL
USER_CHARGES

@<TRIPOS>ATOM
      1 O1          3.7975    0.7378   -0.0862 O.3       1 <0>        -0.4525
      2 O2          3.8491   -1.6494    0.2322 O.3       1 <0>        -0.4526
      3 O3         -1.1288   -3.1688    0.0878 O.2       1 <0>        -0.2846
      4 O4         -4.1326   -1.7962    0.9846 O.3       1 <0>        -0.4759
      5 O5         -4.1934   -2.1897   -1.2674 O.2       1 <0>        -0.2432
      6 N1         -1.0962    0.7840   -0.4320 N.pl3     1 <0>        -0.2629
      7 N2         -2.2800    0.1132   -0.4248 N.2       1 <0>        -0.1601
      8 C1          0.1503    0.1633   -0.2634 C.2       1 <0>         0.0748
      9 C2          0.2219   -1.2329   -0.0742 C.2       1 <0>         0.0528
     10 C3          2.5527    0.1862   -0.0999 C.2       1 <0>         0.1683
     11 C4          1.3651    0.8757   -0.2730 C.2       1 <0>         0.0096
     12 C5          2.5835   -1.1740    0.0817 C.2       1 <0>         0.1670
     13 C6          1.4293   -1.9219    0.1004 C.2       1 <0>        -0.0032
     14 C7         -1.1943    2.2219   -0.6298 C.3       1 <0>         0.0394
     15 C8         -1.0448   -1.9624   -0.0659 C.2       1 <0>         0.2221
     16 C9         -2.2994   -1.1696   -0.2564 C.2       1 <0>         0.2145
     17 C10         4.6143   -0.4320    0.1232 C.3       1 <0>         0.2332
     18 C11        -1.3282    2.9554    0.6888 C.3       1 <0>        -0.0455
     19 C12        -3.6567   -1.7851   -0.2692 C.2       1 <0>         0.3609
     20 H1          1.4128    1.9515   -0.3981 H         1 <0>         0.0677
     21 H2          1.4651   -2.9958    0.2444 H         1 <0>         0.0663
     22 H3         -0.3744    2.6283   -1.2311 H         1 <0>         0.0506
     23 H4         -2.0937    2.4365   -1.2235 H         1 <0>         0.0506
     24 H5          5.1918   -0.2965    1.0450 H         1 <0>         0.1166
     25 H6          5.3108   -0.5291   -0.7176 H         1 <0>         0.1166
     26 H7         -2.2012    2.6045    1.2494 H         1 <0>         0.0247
     27 H8         -0.4463    2.8077    1.3201 H         1 <0>         0.0247
     28 H9         -1.4455    4.0300    0.5166 H         1 <0>         0.0247
     29 H10        -5.0284   -2.1924    1.0383 H         1 <0>         0.2955
@<TRIPOS>BOND
     1    1   10 1
     2    1   17 1
     3    2   12 1
     4    2   17 1
     5    3   15 2
     6    4   19 1
     7    4   29 1
     8    5   19 2
     9    6    7 1
    10    6    8 2
    11    6   14 1
    12    7   16 2
    13    8    9 1
    14    8   11 2
    15    9   13 2
    16    9   15 1
    17   10   11 1
    18   10   12 2
    19   11   20 1
    20   12   13 1
    21   13   21 1
    22   14   18 1
    23   14   22 1
    24   14   23 1
    25   15   16 1
    26   16   19 1
    27   17   24 1
    28   17   25 1
    29   18   26 1
    30   18   27 1
    31   18   28 1
