@<TRIPOS>MOLECULE
DB00443
   57    60     0     0     0
SMALL
USER_CHARGES

@<TRIPOS>ATOM
      1 F1          1.7013   -0.3182   -1.5897 F         1 <0>        -0.2377
      2 O1         -2.6597   -0.6084   -2.0173 O.3       1 <0>        -0.3802
      3 O2          0.9321   -2.1582    1.4007 O.3       1 <0>        -0.3886
      4 O3         -3.7332   -1.9346    0.7531 O.2       1 <0>        -0.2919
      5 O4         -6.2821   -1.2229   -0.0202 O.3       1 <0>        -0.3874
      6 O5          6.5320    0.1227   -2.1046 O.2       1 <0>        -0.2879
      7 C1         -1.3842   -0.5376    0.0756 C.3       1 <0>         0.0096
      8 C2         -0.6076    0.7338   -0.3322 C.3       1 <0>        -0.0263
      9 C3          0.8023    0.8083    0.2742 C.3       1 <0>         0.0003
     10 C4          1.6340   -0.4294   -0.2092 C.3       1 <0>         0.1526
     11 C5         -2.7485   -0.2606   -0.6294 C.3       1 <0>         0.1340
     12 C6         -1.5991    1.8531   -0.0301 C.3       1 <0>        -0.0436
     13 C7         -0.5861   -1.7506   -0.4482 C.3       1 <0>        -0.0151
     14 C8         -2.9519    1.2850   -0.5310 C.3       1 <0>        -0.0071
     15 C9          0.8820   -1.7722    0.0362 C.3       1 <0>         0.0910
     16 C10         3.1303   -0.3713    0.2938 C.3       1 <0>         0.0443
     17 C11         1.4870    2.1288   -0.1242 C.3       1 <0>        -0.0432
     18 C12        -1.6012   -0.6583    1.6094 C.3       1 <0>        -0.0562
     19 C13         2.9319    2.1987    0.3549 C.3       1 <0>        -0.0301
     20 C14         3.7004    0.9913   -0.1180 C.2       1 <0>        -0.0532
     21 C15        -3.8809   -1.1287   -0.1645 C.2       1 <0>         0.1904
     22 C16        -4.1005    1.7714    0.3472 C.3       1 <0>        -0.0594
     23 C17         3.2864   -0.5100    1.8257 C.3       1 <0>        -0.0493
     24 C18         3.9342   -1.5102   -0.3173 C.2       1 <0>        -0.0674
     25 C19         4.7890    1.1429   -0.8885 C.2       1 <0>        -0.0148
     26 C20        -5.2000   -0.9534   -0.8864 C.3       1 <0>         0.1052
     27 C21         5.0177   -1.3659   -1.0866 C.2       1 <0>        -0.0180
     28 C22         5.5291   -0.0225   -1.4139 C.2       1 <0>         0.1787
     29 H1         -0.4771    0.7297   -1.4269 H         1 <0>         0.0311
     30 H2          0.7380    0.8027    1.3657 H         1 <0>         0.0336
     31 H3         -1.6237    2.0778    1.0425 H         1 <0>         0.0272
     32 H4         -1.3476    2.7792   -0.5577 H         1 <0>         0.0272
     33 H5         -0.5510   -1.7399   -1.5440 H         1 <0>         0.0297
     34 H6         -1.0881   -2.6800   -0.1527 H         1 <0>         0.0297
     35 H7         -3.1186    1.6878   -1.5398 H         1 <0>         0.0330
     36 H8          1.3706   -2.5637   -0.5456 H         1 <0>         0.0626
     37 H9          0.9381    2.9785    0.2989 H         1 <0>         0.0272
     38 H10         1.4602    2.2488   -1.2154 H         1 <0>         0.0272
     39 H11        -2.4102   -0.0239    1.9812 H         1 <0>         0.0236
     40 H12        -1.8053   -1.6889    1.9180 H         1 <0>         0.0236
     41 H13        -0.7166   -0.3683    2.1810 H         1 <0>         0.0236
     42 H14         2.9643    2.2546    1.4491 H         1 <0>         0.0310
     43 H15         3.3822    3.1292   -0.0117 H         1 <0>         0.0310
     44 H16        -4.1271    1.2638    1.3154 H         1 <0>         0.0233
     45 H17        -3.9922    2.8443    0.5458 H         1 <0>         0.0233
     46 H18        -5.0745    1.6548   -0.1302 H         1 <0>         0.0233
     47 H19         2.5700    0.1034    2.3802 H         1 <0>         0.0242
     48 H20         3.1697   -1.5423    2.1707 H         1 <0>         0.0242
     49 H21         4.2891   -0.1989    2.1485 H         1 <0>         0.0242
     50 H22        -2.5594   -1.5723   -2.0956 H         1 <0>         0.2108
     51 H23         3.6187   -2.5264   -0.0910 H         1 <0>         0.0583
     52 H24         1.5739   -2.8843    1.4785 H         1 <0>         0.2099
     53 H25         5.1588    2.1235   -1.1688 H         1 <0>         0.0656
     54 H26        -5.2288   -1.6888   -1.6971 H         1 <0>         0.0637
     55 H27        -5.3267    0.0285   -1.3394 H         1 <0>         0.0637
     56 H28         5.5500   -2.2249   -1.4780 H         1 <0>         0.0653
     57 H29        -6.2915   -0.5270    0.6589 H         1 <0>         0.2100
@<TRIPOS>BOND
     1    1   10 1
     2    2   11 1
     3    2   50 1
     4    3   15 1
     5    3   52 1
     6    4   21 2
     7    5   26 1
     8    5   57 1
     9    6   28 2
    10    7    8 1
    11    7   11 1
    12    7   13 1
    13    7   18 1
    14    8    9 1
    15    8   12 1
    16    8   29 1
    17    9   10 1
    18    9   17 1
    19    9   30 1
    20   10   15 1
    21   10   16 1
    22   11   14 1
    23   11   21 1
    24   12   14 1
    25   12   31 1
    26   12   32 1
    27   13   15 1
    28   13   33 1
    29   13   34 1
    30   14   22 1
    31   14   35 1
    32   15   36 1
    33   16   20 1
    34   16   23 1
    35   16   24 1
    36   17   19 1
    37   17   37 1
    38   17   38 1
    39   18   39 1
    40   18   40 1
    41   18   41 1
    42   19   20 1
    43   19   42 1
    44   19   43 1
    45   20   25 2
    46   21   26 1
    47   22   44 1
    48   22   45 1
    49   22   46 1
    50   23   47 1
    51   23   48 1
    52   23   49 1
    53   24   27 2
    54   24   51 1
    55   25   28 1
    56   25   53 1
    57   26   54 1
    58   26   55 1
    59   27   28 1
    60   27   56 1
