@<TRIPOS>MOLECULE
DB00448
   39    41     0     0     0
SMALL
USER_CHARGES

@<TRIPOS>ATOM
      1 S1         -1.0634   -1.2162    1.0242 S.o       1 <0>         0.0954
      2 F1          5.1279    2.8104    0.2877 F         1 <0>        -0.1671
      3 F2          7.0963    2.3137   -0.5103 F         1 <0>        -0.1671
      4 F3          6.5856    1.7903    1.5490 F         1 <0>        -0.1671
      5 O1          4.5113    0.1377    0.6889 O.3       1 <0>        -0.4827
      6 O2         -1.1636   -2.7150    0.9377 O.2       1 <0>        -0.2488
      7 N1         -3.8568   -1.1194    0.9964 N.pl3     1 <0>        -0.3310
      8 N2         -2.8565    0.5127   -0.1332 N.2       1 <0>        -0.2200
      9 N3          1.5485   -2.2611   -0.9681 N.ar      1 <0>        -0.2585
     10 C1         -0.1773   -0.6590   -0.4563 C.3       1 <0>         0.0734
     11 C2          1.2688   -1.0605   -0.4213 C.ar      1 <0>         0.0603
     12 C3          2.2070   -0.2181    0.1443 C.ar      1 <0>         0.0134
     13 C4         -2.6728   -0.5629    0.5993 C.cat     1 <0>         0.1981
     14 C5         -4.8722   -0.3517    0.4862 C.ar      1 <0>         0.0669
     15 C6         -4.2222    0.6603   -0.2147 C.ar      1 <0>         0.0900
     16 C7          3.5322   -0.6392    0.1487 C.ar      1 <0>         0.1270
     17 C8          1.8246    1.0980    0.7321 C.3       1 <0>        -0.0345
     18 C9         -6.2611   -0.4529    0.5747 C.ar      1 <0>        -0.0362
     19 C10         3.8666   -1.8703   -0.4045 C.ar      1 <0>        -0.0015
     20 C11        -4.9873    1.6383   -0.8723 C.ar      1 <0>        -0.0342
     21 C12         2.8469   -2.6369   -0.9454 C.ar      1 <0>         0.0314
     22 C13        -7.0070    0.5289   -0.0858 C.ar      1 <0>        -0.0597
     23 C14        -6.3834    1.5567   -0.7969 C.ar      1 <0>        -0.0596
     24 C15         5.5666    0.5481   -0.1788 C.3       1 <0>         0.1842
     25 C16         6.1029    1.8752    0.2914 C.3       1 <0>         0.4236
     26 H1         -0.2929    0.4218   -0.5769 H         1 <0>         0.0470
     27 H2         -0.6575   -1.1227   -1.3268 H         1 <0>         0.0470
     28 H3         -3.9665   -1.9487    1.5648 H         1 <0>         0.1679
     29 H4          2.6529    1.5777    1.2635 H         1 <0>         0.0279
     30 H5          1.5070    1.7897   -0.0551 H         1 <0>         0.0279
     31 H6          1.0209    0.9867    1.4663 H         1 <0>         0.0279
     32 H7         -6.7426   -1.2516    1.1272 H         1 <0>         0.0639
     33 H8          4.8878   -2.2356   -0.4120 H         1 <0>         0.0669
     34 H9         -4.5124    2.4409   -1.4274 H         1 <0>         0.0639
     35 H10         3.0548   -3.6058   -1.3872 H         1 <0>         0.0831
     36 H11        -8.0928    0.4905   -0.0443 H         1 <0>         0.0618
     37 H12        -6.9901    2.3054   -1.3001 H         1 <0>         0.0618
     38 H13         5.2086    0.6495   -1.2108 H         1 <0>         0.0788
     39 H14         6.3614   -0.2050   -0.1541 H         1 <0>         0.0788
@<TRIPOS>BOND
     1    1    6 2
     2    1   10 1
     3    1   13 1
     4    2   25 1
     5    3   25 1
     6    4   25 1
     7    5   16 1
     8    5   24 1
     9    7   13 1
    10    7   14 2
    11    7   28 1
    12    8   13 1
    13    8   15 2
    14    9   11 ar
    15    9   21 ar
    16   10   11 1
    17   10   26 1
    18   10   27 1
    19   11   12 ar
    20   12   16 ar
    21   12   17 1
    22   14   15 ar
    23   14   18 ar
    24   15   20 ar
    25   16   19 ar
    26   17   29 1
    27   17   30 1
    28   17   31 1
    29   18   22 ar
    30   18   32 1
    31   19   21 ar
    32   19   33 1
    33   20   23 ar
    34   20   34 1
    35   21   35 1
    36   22   23 ar
    37   22   36 1
    38   23   37 1
    39   24   25 1
    40   24   38 1
    41   24   39 1
