@<TRIPOS>MOLECULE
DB00861
   26    27     0     0     0
SMALL
USER_CHARGES

@<TRIPOS>ATOM
      1 F1          1.4581    0.3887    2.3623 F         1 <0>        -0.2048
      2 F2          5.4650   -0.5205    0.0206 F         1 <0>        -0.2054
      3 O1         -4.1295    1.0861   -0.0583 O.3       1 <0>        -0.5059
      4 O2         -2.6815   -2.7316   -0.3119 O.3       1 <0>        -0.4770
      5 O3         -4.3285   -1.5519    0.7186 O.2       1 <0>        -0.2450
      6 C1         -0.0364    0.3875   -0.0168 C.ar      1 <0>        -0.0141
      7 C2          1.3910    0.1519   -0.0032 C.ar      1 <0>         0.0175
      8 C3         -0.9217   -0.6841    0.0993 C.ar      1 <0>        -0.0364
      9 C4         -0.5271    1.6867   -0.1461 C.ar      1 <0>        -0.0505
     10 C5         -2.2979   -0.4563    0.0860 C.ar      1 <0>         0.1007
     11 C6          2.0920    0.1607    1.2027 C.ar      1 <0>         0.1338
     12 C7          2.0662   -0.0842   -1.2008 C.ar      1 <0>        -0.0486
     13 C8         -2.7885    0.8428   -0.0433 C.ar      1 <0>         0.1309
     14 C9         -1.9032    1.9144   -0.1593 C.ar      1 <0>        -0.0188
     15 C10         3.4681   -0.0666    1.2110 C.ar      1 <0>         0.0094
     16 C11         3.4422   -0.3114   -1.1923 C.ar      1 <0>        -0.0257
     17 C12         4.1433   -0.3026    0.0135 C.ar      1 <0>         0.1262
     18 C13        -3.2054   -1.5888    0.2084 C.2       1 <0>         0.3404
     19 H1         -0.5245   -1.6909    0.2130 H         1 <0>         0.0633
     20 H2          0.1492    2.5334   -0.2376 H         1 <0>         0.0625
     21 H3          1.5352   -0.0946   -2.1497 H         1 <0>         0.0625
     22 H4         -2.2714    2.9319   -0.2606 H         1 <0>         0.0654
     23 H5          4.0141   -0.0593    2.1496 H         1 <0>         0.0675
     24 H6          3.9684   -0.4952   -2.1245 H         1 <0>         0.0646
     25 H7         -4.2780    2.0425   -0.1550 H         1 <0>         0.2922
     26 H8         -3.2992   -3.4888   -0.2254 H         1 <0>         0.2954
@<TRIPOS>BOND
     1    1   11 1
     2    2   17 1
     3    3   13 1
     4    3   25 1
     5    4   18 1
     6    4   26 1
     7    5   18 2
     8    6    7 1
     9    6    8 ar
    10    6    9 ar
    11    7   11 ar
    12    7   12 ar
    13    8   10 ar
    14    8   19 1
    15    9   14 ar
    16    9   20 1
    17   10   13 ar
    18   10   18 1
    19   11   15 ar
    20   12   16 ar
    21   12   21 1
    22   13   14 ar
    23   14   22 1
    24   15   17 ar
    25   15   23 1
    26   16   17 ar
    27   16   24 1
