@<TRIPOS>MOLECULE
DB00440
   39    40     0     0     0
SMALL
USER_CHARGES

@<TRIPOS>ATOM
      1 O1          2.3080   -2.4927    1.1310 O.3       1 <0>        -0.4913
      2 O2          2.5633    1.9151   -0.7254 O.3       1 <0>        -0.4913
      3 O3          3.7054   -0.5712   -0.2928 O.3       1 <0>        -0.4885
      4 N1         -4.0507    0.8297   -1.0091 N.ar      1 <0>        -0.1999
      5 N2         -4.1353   -1.3741   -0.0381 N.ar      1 <0>        -0.2227
      6 N3         -2.4881    2.4267   -0.2138 N.pl3     1 <0>        -0.3428
      7 N4         -5.5877   -0.7677   -1.7783 N.pl3     1 <0>        -0.3274
      8 C1         -1.4443    0.5731    1.7155 C.3       1 <0>         0.0025
      9 C2         -0.0837    0.2708    1.1850 C.ar      1 <0>        -0.0358
     10 C3         -2.5675    0.2340    0.7565 C.ar      1 <0>         0.0146
     11 C4          0.6170    1.2410    0.4685 C.ar      1 <0>        -0.0126
     12 C5          0.4884   -0.9822    1.4052 C.ar      1 <0>        -0.0126
     13 C6          1.7609   -1.2650    0.9089 C.ar      1 <0>         0.1654
     14 C7          1.8896    0.9583   -0.0278 C.ar      1 <0>         0.1654
     15 C8          2.4615   -0.2948    0.1923 C.ar      1 <0>         0.2035
     16 C9         -3.0506    1.1278   -0.1539 C.ar      1 <0>         0.1247
     17 C10        -3.1327   -1.0085    0.7874 C.ar      1 <0>         0.0379
     18 C11        -4.5395   -0.4202   -0.8984 C.ar      1 <0>         0.2142
     19 C12         2.0523   -3.5020    0.1563 C.3       1 <0>         0.0790
     20 C13         3.3991    2.7953    0.0234 C.3       1 <0>         0.0790
     21 C14         3.8828   -0.4861   -1.7049 C.3       1 <0>         0.0791
     22 H1         -1.6001    0.0082    2.6467 H         1 <0>         0.0363
     23 H2         -1.5024    1.6136    2.0565 H         1 <0>         0.0363
     24 H3          0.1892    2.2252    0.3012 H         1 <0>         0.0658
     25 H4         -0.0513   -1.7432    1.9637 H         1 <0>         0.0658
     26 H5         -2.8088   -1.7780    1.4796 H         1 <0>         0.0834
     27 H6         -2.1884    2.8713    0.6434 H         1 <0>         0.1437
     28 H7         -2.8680    3.0370   -0.9283 H         1 <0>         0.1437
     29 H8          2.4443   -3.2043   -0.8211 H         1 <0>         0.0660
     30 H9          0.9785   -3.7025    0.0851 H         1 <0>         0.0660
     31 H10         2.5589   -4.4184    0.4713 H         1 <0>         0.0660
     32 H11         4.1782    2.2340    0.5489 H         1 <0>         0.0660
     33 H12         2.8042    3.3723    0.7385 H         1 <0>         0.0660
     34 H13         3.8777    3.4886   -0.6736 H         1 <0>         0.0660
     35 H14         4.3000    0.4886   -1.9725 H         1 <0>         0.0660
     36 H15         2.9505   -0.6655   -2.2517 H         1 <0>         0.0660
     37 H16         4.6035   -1.2546   -2.0001 H         1 <0>         0.0660
     38 H17        -5.9879   -1.6945   -1.7330 H         1 <0>         0.1452
     39 H18        -5.9261   -0.0849   -2.4421 H         1 <0>         0.1452
@<TRIPOS>BOND
     1    1   13 1
     2    1   19 1
     3    2   14 1
     4    2   20 1
     5    3   15 1
     6    3   21 1
     7    4   16 ar
     8    4   18 ar
     9    5   17 ar
    10    5   18 ar
    11    6   16 1
    12    6   27 1
    13    6   28 1
    14    7   18 1
    15    7   38 1
    16    7   39 1
    17    8    9 1
    18    8   10 1
    19    8   22 1
    20    8   23 1
    21    9   11 ar
    22    9   12 ar
    23   10   16 ar
    24   10   17 ar
    25   11   14 ar
    26   11   24 1
    27   12   13 ar
    28   12   25 1
    29   13   15 ar
    30   14   15 ar
    31   17   26 1
    32   19   29 1
    33   19   30 1
    34   19   31 1
    35   20   32 1
    36   20   33 1
    37   20   34 1
    38   21   35 1
    39   21   36 1
    40   21   37 1
