@<TRIPOS>MOLECULE
DB00919
   47    49     0     0     0
SMALL
USER_CHARGES

@<TRIPOS>ATOM
      1 O1          1.1368    1.2056   -0.2245 O.3       1 <0>        -0.3314
      2 O2          1.0699   -1.3014   -1.4831 O.3       1 <0>        -0.3377
      3 O3          2.8620   -1.2447    0.0508 O.3       1 <0>        -0.3429
      4 O4         -1.0040   -3.0469   -0.6385 O.3       1 <0>        -0.3875
      5 O5         -2.9605    0.7455   -1.3051 O.3       1 <0>        -0.3885
      6 O6          2.0180    1.3743   -2.4144 O.3       1 <0>        -0.3551
      7 O7          3.9285    2.5008   -0.9682 O.2       1 <0>        -0.2914
      8 N1         -1.3874    2.5156    0.2639 N.3       1 <0>        -0.3118
      9 N2         -3.6398   -1.8280   -0.2968 N.3       1 <0>        -0.3118
     10 C1         -0.1079    0.6032   -0.6032 C.3       1 <0>         0.1088
     11 C2          0.0614   -0.9159   -0.5377 C.3       1 <0>         0.1169
     12 C3         -1.2229    1.0617    0.3477 C.3       1 <0>         0.0641
     13 C4         -1.2423   -1.6545   -0.8575 C.3       1 <0>         0.1016
     14 C5         -2.3787   -1.1733    0.0650 C.3       1 <0>         0.0638
     15 C6         -2.5504    0.3571    0.0097 C.3       1 <0>         0.0907
     16 C7          2.1905    0.8269   -1.1133 C.3       1 <0>         0.2809
     17 C8          2.3410   -0.7036   -1.1698 C.3       1 <0>         0.2221
     18 C9          3.4465    1.4563   -0.5322 C.2       1 <0>         0.1995
     19 C10         4.1525   -0.7215    0.3735 C.3       1 <0>         0.0659
     20 C11         4.0365    0.7668    0.6741 C.3       1 <0>         0.0375
     21 C12        -2.4335    2.9642    1.1671 C.3       1 <0>        -0.0154
     22 C13        -4.6997   -1.4355    0.6165 C.3       1 <0>        -0.0154
     23 C14         4.6706   -1.4824    1.5855 C.3       1 <0>        -0.0382
     24 H1         -0.3387    0.9144   -1.6315 H         1 <0>         0.0640
     25 H2          0.4075   -1.2240    0.4587 H         1 <0>         0.0650
     26 H3         -0.9198    0.8108    1.3737 H         1 <0>         0.0513
     27 H4         -1.4933   -1.5282   -1.9181 H         1 <0>         0.0636
     28 H5         -2.1208   -1.4697    1.0919 H         1 <0>         0.0513
     29 H6         -3.3229    0.6598    0.7204 H         1 <0>         0.0626
     30 H7          3.0155   -0.9892   -1.9860 H         1 <0>         0.0971
     31 H8         -1.5999    2.8037   -0.6898 H         1 <0>         0.1221
     32 H9         -3.5173   -2.8385   -0.2404 H         1 <0>         0.1221
     33 H10         4.8292   -0.8971   -0.4726 H         1 <0>         0.0598
     34 H11         5.0184    1.1975    0.8951 H         1 <0>         0.0369
     35 H12         3.3683    0.9567    1.5216 H         1 <0>         0.0369
     36 H13        -1.7752   -3.5328   -0.9754 H         1 <0>         0.2100
     37 H14        -3.2049    1.6852   -1.2742 H         1 <0>         0.2099
     38 H15         2.1393    2.3369   -2.3531 H         1 <0>         0.2133
     39 H16        -3.4406    2.7767    0.7832 H         1 <0>         0.0388
     40 H17        -2.3481    4.0503    1.2818 H         1 <0>         0.0388
     41 H18        -2.3330    2.5346    2.1697 H         1 <0>         0.0388
     42 H19        -5.5440   -2.1221    0.4876 H         1 <0>         0.0388
     43 H20        -5.0936   -0.4392    0.3955 H         1 <0>         0.0388
     44 H21        -4.3978   -1.4957    1.6675 H         1 <0>         0.0388
     45 H22         4.7303   -2.5538    1.3654 H         1 <0>         0.0255
     46 H23         5.6637   -1.1313    1.8814 H         1 <0>         0.0255
     47 H24         3.9906   -1.3751    2.4379 H         1 <0>         0.0255
@<TRIPOS>BOND
     1    1   10 1
     2    1   16 1
     3    2   11 1
     4    2   17 1
     5    3   17 1
     6    3   19 1
     7    4   13 1
     8    4   36 1
     9    5   15 1
    10    5   37 1
    11    6   16 1
    12    6   38 1
    13    7   18 2
    14    8   12 1
    15    8   21 1
    16    8   31 1
    17    9   14 1
    18    9   22 1
    19    9   32 1
    20   10   11 1
    21   10   12 1
    22   10   24 1
    23   11   13 1
    24   11   25 1
    25   12   15 1
    26   12   26 1
    27   13   14 1
    28   13   27 1
    29   14   15 1
    30   14   28 1
    31   15   29 1
    32   16   17 1
    33   16   18 1
    34   17   30 1
    35   18   20 1
    36   19   20 1
    37   19   23 1
    38   19   33 1
    39   20   34 1
    40   20   35 1
    41   21   39 1
    42   21   40 1
    43   21   41 1
    44   22   42 1
    45   22   43 1
    46   22   44 1
    47   23   45 1
    48   23   46 1
    49   23   47 1
