@<TRIPOS>MOLECULE
DB00185
   30    32     0     0     0
SMALL
USER_CHARGES

@<TRIPOS>ATOM
      1 S1         -2.3584   -1.5321    1.0365 S.3       1 <0>        -0.1270
      2 O1         -1.4051    0.4278   -0.4690 O.3       1 <0>        -0.3576
      3 N1          1.9147    0.2061   -1.2356 N.3       1 <0>        -0.2995
      4 C1         -0.2879   -0.4543   -0.2075 C.3       1 <0>         0.0954
      5 C2          0.5628    0.0972    0.9779 C.3       1 <0>        -0.0075
      6 C3          0.6100   -0.4567   -1.4745 C.3       1 <0>         0.0291
      7 C4          1.8707   -0.7054    1.0886 C.3       1 <0>        -0.0346
      8 C5          0.9690    1.5476    0.6440 C.3       1 <0>        -0.0346
      9 C6          2.6600   -0.5721   -0.2228 C.3       1 <0>        -0.0007
     10 C7          1.6778    1.5702   -0.7185 C.3       1 <0>        -0.0007
     11 C8         -0.9004   -1.8451    0.0260 C.3       1 <0>         0.0267
     12 C9         -2.4461    0.1878    0.4875 C.3       1 <0>         0.1022
     13 C10        -3.7821    0.4882   -0.1675 C.3       1 <0>        -0.0292
     14 H1          0.0192    0.0830    1.9277 H         1 <0>         0.0330
     15 H2          0.8074   -1.4808   -1.8169 H         1 <0>         0.0455
     16 H3          0.1055    0.0444   -2.3105 H         1 <0>         0.0455
     17 H4          1.6695   -1.7592    1.3059 H         1 <0>         0.0281
     18 H5          2.4738   -0.3226    1.9209 H         1 <0>         0.0281
     19 H6          1.6397    1.9348    1.4210 H         1 <0>         0.0281
     20 H7          0.0928    2.2057    0.6251 H         1 <0>         0.0281
     21 H8          3.6297   -0.0956   -0.0308 H         1 <0>         0.0427
     22 H9          2.8965   -1.5676   -0.6187 H         1 <0>         0.0427
     23 H10         1.0842    2.1425   -1.4426 H         1 <0>         0.0427
     24 H11         2.6318    2.1050   -0.6326 H         1 <0>         0.0427
     25 H12        -1.2543   -2.2798   -0.9151 H         1 <0>         0.0406
     26 H13        -0.2246   -2.5585    0.5018 H         1 <0>         0.0406
     27 H14        -2.2923    0.8512    1.3448 H         1 <0>         0.0710
     28 H15        -3.9374   -0.1245   -1.0631 H         1 <0>         0.0263
     29 H16        -3.8081    1.5312   -0.5033 H         1 <0>         0.0263
     30 H17        -4.6182    0.3317    0.5214 H         1 <0>         0.0263
@<TRIPOS>BOND
     1    1   11 1
     2    1   12 1
     3    2    4 1
     4    2   12 1
     5    3    6 1
     6    3    9 1
     7    3   10 1
     8    4    5 1
     9    4    6 1
    10    4   11 1
    11    5    7 1
    12    5    8 1
    13    5   14 1
    14    6   15 1
    15    6   16 1
    16    7    9 1
    17    7   17 1
    18    7   18 1
    19    8   10 1
    20    8   19 1
    21    8   20 1
    22    9   21 1
    23    9   22 1
    24   10   23 1
    25   10   24 1
    26   11   25 1
    27   11   26 1
    28   12   13 1
    29   12   27 1
    30   13   28 1
    31   13   29 1
    32   13   30 1
