@<TRIPOS>MOLECULE
DB00138
   26    25     0     0     0
SMALL
USER_CHARGES

@<TRIPOS>ATOM
      1 S1         -0.9333   -0.4306    1.1144 S.3       1 <0>        -0.0869
      2 S2          0.9379    0.4159    1.1063 S.3       1 <0>        -0.0869
      3 O1         -4.5649   -1.8058   -0.4744 O.co2     1 <0>        -0.5441
      4 O2          4.5535    1.8130   -0.4822 O.co2     1 <0>        -0.5441
      5 O3         -2.5569   -1.7837   -1.5574 O.co2     1 <0>        -0.5441
      6 O4          2.5442    1.7771   -1.5622 O.co2     1 <0>        -0.5441
      7 N1         -3.9983    0.5317    0.8678 N.4       1 <0>         0.2255
      8 N2          4.0012   -0.5232    0.8679 N.4       1 <0>         0.2255
      9 C1         -3.2434    0.1607   -0.3723 C.3       1 <0>         0.0259
     10 C2          3.2426   -0.1600   -0.3724 C.3       1 <0>         0.0259
     11 C3         -1.7850    0.5697   -0.1494 C.3       1 <0>         0.0522
     12 C4          1.7867   -0.5761   -0.1460 C.3       1 <0>         0.0522
     13 C5         -3.4803   -1.2811   -0.8570 C.2       1 <0>         0.0902
     14 C6          3.4711    1.2815   -0.8618 C.2       1 <0>         0.0902
     15 H1         -3.6643    0.8097   -1.1504 H         1 <0>         0.0923
     16 H2          3.6660   -0.8091   -1.1489 H         1 <0>         0.0923
     17 H3         -1.2354    0.4656   -1.0917 H         1 <0>         0.0444
     18 H4         -1.7353    1.6246    0.1453 H         1 <0>         0.0444
     19 H5          1.2377   -0.4797   -1.0896 H         1 <0>         0.0444
     20 H6          1.7450   -1.6313    0.1491 H         1 <0>         0.0444
     21 H7         -5.0045    0.3481    0.7573 H         1 <0>         0.2001
     22 H8         -3.8933    1.5297    1.0947 H         1 <0>         0.2001
     23 H9         -3.6738   -0.0094    1.6803 H         1 <0>         0.2001
     24 H10         3.9019   -1.5211    1.0980 H         1 <0>         0.2001
     25 H11         3.6748    0.0185    1.6792 H         1 <0>         0.2001
     26 H12         5.0061   -0.3347    0.7555 H         1 <0>         0.2001
@<TRIPOS>BOND
     1    1    2 1
     2    1   11 1
     3    2   12 1
     4    3   13 2
     5    4   14 2
     6    5   13 1
     7    6   14 1
     8    7    9 1
     9    7   21 1
    10    7   22 1
    11    7   23 1
    12    8   10 1
    13    8   24 1
    14    8   25 1
    15    8   26 1
    16    9   11 1
    17    9   13 1
    18    9   15 1
    19   10   12 1
    20   10   14 1
    21   10   16 1
    22   11   17 1
    23   11   18 1
    24   12   19 1
    25   12   20 1
