@<TRIPOS>MOLECULE
DB00444
   78    85     0     0     0
SMALL
USER_CHARGES

@<TRIPOS>ATOM
      1 S1         -8.6875   -2.6459    0.0389 S.3       1 <0>        -0.0966
      2 O1         -0.6065    1.0733   -1.2433 O.3       1 <0>        -0.3404
      3 O2          1.3170   -2.4327   -2.0372 O.3       1 <0>        -0.4640
      4 O3         -2.2650   -0.2949   -0.3259 O.3       1 <0>        -0.3405
      5 O4         -5.9175   -0.2357   -0.4887 O.3       1 <0>        -0.3382
      6 O5          3.3617   -1.9242   -2.9642 O.2       1 <0>        -0.2505
      7 O6         -2.6514    2.8526   -2.1836 O.3       1 <0>        -0.3841
      8 O7         -5.2337   -1.8588    1.1402 O.3       1 <0>        -0.3440
      9 O8         -5.1458    1.4621   -2.7222 O.3       1 <0>        -0.3864
     10 O9          1.3387    5.1133    1.7112 O.3       1 <0>        -0.4526
     11 O10         3.5937    5.1411    0.8648 O.3       1 <0>        -0.4526
     12 O11         4.6895   -0.9726    3.0999 O.3       1 <0>        -0.4913
     13 O12         7.2199   -2.0682   -0.8158 O.3       1 <0>        -0.4913
     14 O13         6.8565   -2.2356    1.9245 O.3       1 <0>        -0.5009
     15 C1          1.0712   -0.5690   -0.6832 C.3       1 <0>         0.0375
     16 C2          2.0674   -0.2288   -1.7782 C.3       1 <0>         0.0758
     17 C3          0.3207    0.6779   -0.2327 C.3       1 <0>         0.0938
     18 C4          3.1995    0.6647   -1.2495 C.3       1 <0>         0.0233
     19 C5          1.2772    1.8249    0.0472 C.ar      1 <0>        -0.0109
     20 C6          2.6156    1.8400   -0.4541 C.ar      1 <0>        -0.0298
     21 C7          0.3014   -1.6953   -1.3313 C.3       1 <0>         0.0987
     22 C8          2.3725   -1.5994   -2.3284 C.2       1 <0>         0.3116
     23 C9         -1.9490    1.0293   -0.7614 C.3       1 <0>         0.1886
     24 C10         4.1712   -0.1065   -0.4060 C.ar      1 <0>        -0.0320
     25 C11        -2.8715    1.4702   -1.9041 C.3       1 <0>         0.1341
     26 C12        -4.5847   -0.1196   -0.9892 C.3       1 <0>         0.1187
     27 C13        -4.3493    1.2795   -1.5512 C.3       1 <0>         0.1144
     28 C14        -3.6020   -0.3876    0.1489 C.3       1 <0>         0.1137
     29 C15         0.7974    2.9197    0.7903 C.ar      1 <0>        -0.0102
     30 C16         3.4425    2.9525   -0.2024 C.ar      1 <0>        -0.0120
     31 C17        -3.8724   -1.7741    0.7192 C.3       1 <0>         0.0798
     32 C18         1.6451    3.9838    1.0164 C.ar      1 <0>         0.1666
     33 C19         2.9300    4.0002    0.5331 C.ar      1 <0>         0.1665
     34 C20         5.2554   -0.7368   -1.0065 C.ar      1 <0>        -0.0123
     35 C21         3.9789   -0.1845    0.9689 C.ar      1 <0>        -0.0123
     36 C22        -6.1295   -1.5393    0.0689 C.3       1 <0>         0.1921
     37 C23         4.8822   -0.9018    1.7533 C.ar      1 <0>         0.1653
     38 C24         6.1585   -1.4542   -0.2222 C.ar      1 <0>         0.1653
     39 C25         2.5797    5.8413    1.6136 C.3       1 <0>         0.2332
     40 C26         5.9720   -1.5368    1.1577 C.ar      1 <0>         0.2010
     41 C27        -7.5208   -1.5447    0.6464 C.2       1 <0>         0.0451
     42 C28        -8.0412   -0.7530    1.6513 C.2       1 <0>        -0.0467
     43 C29        -9.4072   -1.0546    1.9228 C.2       1 <0>        -0.0543
     44 C30        -9.8840   -2.0649    1.1173 C.2       1 <0>        -0.0239
     45 C31         3.9008   -2.0571    3.5856 C.3       1 <0>         0.0790
     46 C32         7.0290   -3.4116   -1.2553 C.3       1 <0>         0.0790
     47 H1          1.5930   -1.0009    0.1798 H         1 <0>         0.0370
     48 H2          1.5564    0.3090   -2.5916 H         1 <0>         0.0427
     49 H3         -0.1842    0.4339    0.7129 H         1 <0>         0.0651
     50 H4          3.7306    1.0848   -2.1155 H         1 <0>         0.0405
     51 H5         -0.4471   -1.3710   -2.0609 H         1 <0>         0.0701
     52 H6         -0.1718   -2.3489   -0.5929 H         1 <0>         0.0701
     53 H7         -2.0378    1.7292    0.0801 H         1 <0>         0.0938
     54 H8         -2.6353    0.9180   -2.8224 H         1 <0>         0.0671
     55 H9         -4.4542   -0.8466   -1.8033 H         1 <0>         0.0651
     56 H10        -4.6814    2.0398   -0.8333 H         1 <0>         0.0648
     57 H11        -3.7620    0.3400    0.9572 H         1 <0>         0.0647
     58 H12        -0.2158    2.9338    1.1782 H         1 <0>         0.0659
     59 H13         4.4622    2.9871   -0.5734 H         1 <0>         0.0658
     60 H14        -3.6580   -2.5629   -0.0122 H         1 <0>         0.0588
     61 H15        -3.2280   -1.9641    1.5840 H         1 <0>         0.0588
     62 H16         5.4227   -0.6579   -2.0774 H         1 <0>         0.0658
     63 H17         3.1400    0.2811    1.4759 H         1 <0>         0.0658
     64 H18        -6.0293   -2.2938   -0.7228 H         1 <0>         0.0970
     65 H19        -1.7049    2.9620   -2.3787 H         1 <0>         0.2101
     66 H20        -4.9477    2.3475   -3.0725 H         1 <0>         0.2100
     67 H21         2.9571    6.0291    2.6254 H         1 <0>         0.1166
     68 H22         2.3849    6.8035    1.1262 H         1 <0>         0.1166
     69 H23        -7.4697    0.0075    2.1683 H         1 <0>         0.0627
     70 H24         7.5678   -2.5699    1.3516 H         1 <0>         0.2924
     71 H25       -10.0092   -0.5555    2.6710 H         1 <0>         0.0623
     72 H26       -10.8777   -2.4898    1.1104 H         1 <0>         0.0693
     73 H27         4.3623   -3.0155    3.3276 H         1 <0>         0.0660
     74 H28         3.8435   -1.9784    4.6747 H         1 <0>         0.0660
     75 H29         2.8866   -2.0063    3.1769 H         1 <0>         0.0660
     76 H30         6.7447   -4.0579   -0.4188 H         1 <0>         0.0660
     77 H31         6.2634   -3.4517   -2.0367 H         1 <0>         0.0660
     78 H32         7.9730   -3.7734   -1.6716 H         1 <0>         0.0660
@<TRIPOS>BOND
     1    1   41 1
     2    1   44 1
     3    2   17 1
     4    2   23 1
     5    3   21 1
     6    3   22 1
     7    4   23 1
     8    4   28 1
     9    5   26 1
    10    5   36 1
    11    6   22 2
    12    7   25 1
    13    7   65 1
    14    8   31 1
    15    8   36 1
    16    9   27 1
    17    9   66 1
    18   10   32 1
    19   10   39 1
    20   11   33 1
    21   11   39 1
    22   12   37 1
    23   12   45 1
    24   13   38 1
    25   13   46 1
    26   14   40 1
    27   14   70 1
    28   15   16 1
    29   15   17 1
    30   15   21 1
    31   15   47 1
    32   16   18 1
    33   16   22 1
    34   16   48 1
    35   17   19 1
    36   17   49 1
    37   18   20 1
    38   18   24 1
    39   18   50 1
    40   19   20 ar
    41   19   29 ar
    42   20   30 ar
    43   21   51 1
    44   21   52 1
    45   23   25 1
    46   23   53 1
    47   24   34 ar
    48   24   35 ar
    49   25   27 1
    50   25   54 1
    51   26   27 1
    52   26   28 1
    53   26   55 1
    54   27   56 1
    55   28   31 1
    56   28   57 1
    57   29   32 ar
    58   29   58 1
    59   30   33 ar
    60   30   59 1
    61   31   60 1
    62   31   61 1
    63   32   33 ar
    64   34   38 ar
    65   34   62 1
    66   35   37 ar
    67   35   63 1
    68   36   41 1
    69   36   64 1
    70   37   40 ar
    71   38   40 ar
    72   39   67 1
    73   39   68 1
    74   41   42 2
    75   42   43 1
    76   42   69 1
    77   43   44 2
    78   43   71 1
    79   44   72 1
    80   45   73 1
    81   45   74 1
    82   45   75 1
    83   46   76 1
    84   46   77 1
    85   46   78 1
