@<TRIPOS>MOLECULE
DB00346
   55    57     0     0     0
SMALL
USER_CHARGES

@<TRIPOS>ATOM
      1 O1         -4.2455   -2.4775   -1.2154 O.3       1 <0>        -0.3674
      2 O2         -4.5370   -0.0016   -0.5903 O.2       1 <0>        -0.2730
      3 O3          5.3913   -1.2457   -0.3351 O.3       1 <0>        -0.4914
      4 O4          3.1792   -2.8032    0.2992 O.3       1 <0>        -0.4914
      5 N1         -3.5089   -0.2166    1.4884 N.am      1 <0>        -0.3131
      6 N2         -1.0498    2.8766   -0.3212 N.pl3     1 <0>        -0.3026
      7 N3          0.3420    0.9989   -0.1158 N.ar      1 <0>        -0.2141
      8 N4          1.2458    3.1557   -0.6967 N.ar      1 <0>        -0.1992
      9 N5          3.5524    3.4295   -1.0722 N.pl3     1 <0>        -0.3425
     10 C1         -3.6939   -2.1358    0.0592 C.3       1 <0>         0.1343
     11 C2         -2.2087   -2.4404    0.0083 C.3       1 <0>        -0.0159
     12 C3         -1.9031   -2.3338   -1.4666 C.3       1 <0>        -0.0266
     13 C4         -3.1757   -2.8609   -2.0899 C.3       1 <0>         0.0487
     14 C5         -3.9735   -0.6800    0.2645 C.2       1 <0>         0.2419
     15 C6         -3.6333    1.1495    1.9169 C.3       1 <0>         0.0131
     16 C7         -2.4366    2.0049    1.5055 C.3       1 <0>        -0.0215
     17 C8         -2.1923    2.0450   -0.0026 C.3       1 <0>         0.0160
     18 C9          0.2455    2.3174   -0.3813 C.ar      1 <0>         0.2198
     19 C10        -1.2525    4.2853   -0.5911 C.3       1 <0>         0.0034
     20 C11         2.6991    1.2353   -0.4899 C.ar      1 <0>         0.0437
     21 C12         1.5725    0.4597   -0.1708 C.ar      1 <0>         0.0816
     22 C13         2.4638    2.5837   -0.7432 C.ar      1 <0>         0.1291
     23 C14         3.9810    0.6607   -0.5446 C.ar      1 <0>        -0.0038
     24 C15         1.7682   -0.8946    0.0890 C.ar      1 <0>         0.0099
     25 C16         4.1474   -0.6953   -0.2804 C.ar      1 <0>         0.1623
     26 C17         3.0397   -1.4734    0.0367 C.ar      1 <0>         0.1635
     27 C18         6.1539   -1.2475    0.8707 C.3       1 <0>         0.0790
     28 C19         1.9932   -3.5290    0.6159 C.3       1 <0>         0.0790
     29 H1         -4.2058   -2.7087    0.8396 H         1 <0>         0.0693
     30 H2         -1.5761   -1.7879    0.6153 H         1 <0>         0.0296
     31 H3         -2.0361   -3.4726    0.3372 H         1 <0>         0.0296
     32 H4         -1.0143   -2.8922   -1.7716 H         1 <0>         0.0288
     33 H5         -1.7584   -1.2822   -1.7404 H         1 <0>         0.0288
     34 H6         -3.1654   -3.9546   -2.1484 H         1 <0>         0.0560
     35 H7         -3.3540   -2.4581   -3.0905 H         1 <0>         0.0560
     36 H8         -3.7272    1.1423    3.0077 H         1 <0>         0.0462
     37 H9         -4.5553    1.5718    1.5020 H         1 <0>         0.0462
     38 H10        -1.5393    1.6203    2.0073 H         1 <0>         0.0295
     39 H11        -2.5865    3.0245    1.8820 H         1 <0>         0.0295
     40 H12        -3.0632   -0.8685    2.1274 H         1 <0>         0.1488
     41 H13        -2.0592    1.0415   -0.4179 H         1 <0>         0.0465
     42 H14        -3.0872    2.4444   -0.4969 H         1 <0>         0.0465
     43 H15        -2.3007    4.5759   -0.4603 H         1 <0>         0.0429
     44 H16        -0.9712    4.5274   -1.6216 H         1 <0>         0.0429
     45 H17        -0.6606    4.9033    0.0931 H         1 <0>         0.0429
     46 H18         4.8626    1.2425   -0.7989 H         1 <0>         0.0663
     47 H19         0.8745   -1.4606    0.3329 H         1 <0>         0.0677
     48 H20         3.3139    4.3940   -1.2725 H         1 <0>         0.1437
     49 H21         4.4411    3.2722   -0.6138 H         1 <0>         0.1437
     50 H22         6.3364   -0.2230    1.2100 H         1 <0>         0.0660
     51 H23         5.6390   -1.8163    1.6515 H         1 <0>         0.0660
     52 H24         7.1160   -1.7253    0.6668 H         1 <0>         0.0660
     53 H25         1.2901   -3.5417   -0.2241 H         1 <0>         0.0660
     54 H26         2.2901   -4.5678    0.7952 H         1 <0>         0.0660
     55 H27         1.5326   -3.1676    1.5417 H         1 <0>         0.0660
@<TRIPOS>BOND
     1    1   10 1
     2    1   13 1
     3    2   14 2
     4    3   25 1
     5    3   27 1
     6    4   26 1
     7    4   28 1
     8    5   14 am
     9    5   15 1
    10    5   40 1
    11    6   17 1
    12    6   18 1
    13    6   19 1
    14    7   18 ar
    15    7   21 ar
    16    8   18 ar
    17    8   22 ar
    18    9   22 1
    19    9   48 1
    20    9   49 1
    21   10   11 1
    22   10   14 1
    23   10   29 1
    24   11   12 1
    25   11   30 1
    26   11   31 1
    27   12   13 1
    28   12   32 1
    29   12   33 1
    30   13   34 1
    31   13   35 1
    32   15   16 1
    33   15   36 1
    34   15   37 1
    35   16   17 1
    36   16   38 1
    37   16   39 1
    38   17   41 1
    39   17   42 1
    40   19   43 1
    41   19   44 1
    42   19   45 1
    43   20   21 ar
    44   20   22 ar
    45   20   23 ar
    46   21   24 ar
    47   23   25 ar
    48   23   46 1
    49   24   26 ar
    50   24   47 1
    51   25   26 ar
    52   27   50 1
    53   27   51 1
    54   27   52 1
    55   28   53 1
    56   28   54 1
    57   28   55 1
