@<TRIPOS>MOLECULE
DB00508
   43    45     0     0     0
SMALL
USER_CHARGES

@<TRIPOS>ATOM
      1 S1         -4.2542   -0.0134    0.1926 S.3       1 <0>        -0.0857
      2 F1         -0.7271    5.6784   -0.2784 F         1 <0>        -0.1659
      3 F2          0.5402    4.6177    1.1261 F         1 <0>        -0.1659
      4 F3          0.7703    4.2816   -1.0099 F         1 <0>        -0.1659
      5 N1         -1.1909   -0.3727    0.5832 N.pl3     1 <0>        -0.2983
      6 N2          3.6077   -0.9593   -0.4507 N.3       1 <0>        -0.3083
      7 C1          0.1383   -0.5478    1.1829 C.3       1 <0>         0.0185
      8 C2          1.2094   -0.6637    0.0990 C.3       1 <0>        -0.0240
      9 C3         -1.6287    0.9542    0.3420 C.ar      1 <0>         0.0484
     10 C4         -1.9076   -1.5444    0.2314 C.ar      1 <0>         0.0479
     11 C5          2.6270   -0.9050    0.6266 C.3       1 <0>        -0.0003
     12 C6         -2.9910    1.2415    0.1259 C.ar      1 <0>         0.0341
     13 C7         -3.2976   -1.5048    0.0045 C.ar      1 <0>         0.0341
     14 C8         -0.7263    2.0380    0.2709 C.ar      1 <0>        -0.0276
     15 C9         -1.2653   -2.7899    0.0572 C.ar      1 <0>        -0.0393
     16 C10        -1.1562    3.3441    0.0211 C.ar      1 <0>         0.0566
     17 C11        -3.4188    2.5581   -0.1203 C.ar      1 <0>        -0.0457
     18 C12        -4.0023   -2.6686   -0.3514 C.ar      1 <0>        -0.0462
     19 C13        -2.5043    3.6050   -0.1714 C.ar      1 <0>        -0.0490
     20 C14        -1.9697   -3.9423   -0.3016 C.ar      1 <0>        -0.0599
     21 C15         4.9582   -1.1269    0.0894 C.3       1 <0>        -0.0130
     22 C16         3.5369    0.2493   -1.2739 C.3       1 <0>        -0.0130
     23 C17        -3.3402   -3.8823   -0.5028 C.ar      1 <0>        -0.0606
     24 C18        -0.1654    4.4581   -0.0323 C.3       1 <0>         0.4175
     25 H1          0.3780    0.2705    1.8748 H         1 <0>         0.0468
     26 H2          0.1588   -1.4341    1.8313 H         1 <0>         0.0468
     27 H3          1.1798    0.2555   -0.4886 H         1 <0>         0.0293
     28 H4          0.9724   -1.4505   -0.6244 H         1 <0>         0.0293
     29 H5          2.6343   -1.8549    1.1757 H         1 <0>         0.0427
     30 H6          2.8786   -0.1143    1.3460 H         1 <0>         0.0427
     31 H7          0.3393    1.9087    0.4297 H         1 <0>         0.0642
     32 H8         -0.2023   -2.9274    0.2226 H         1 <0>         0.0636
     33 H9         -4.4724    2.7822   -0.2752 H         1 <0>         0.0629
     34 H10        -5.0779   -2.6412   -0.5149 H         1 <0>         0.0629
     35 H11        -2.8636    4.6116   -0.3638 H         1 <0>         0.0623
     36 H12        -1.4437   -4.8858   -0.4157 H         1 <0>         0.0618
     37 H13         5.0213   -2.0414    0.6899 H         1 <0>         0.0391
     38 H14         5.2614   -0.2804    0.7162 H         1 <0>         0.0391
     39 H15         5.6872   -1.2353   -0.7215 H         1 <0>         0.0391
     40 H16         4.3908    0.2922   -1.9617 H         1 <0>         0.0391
     41 H17         3.5502    1.1684   -0.6764 H         1 <0>         0.0391
     42 H18         2.6583    0.2467   -1.9264 H         1 <0>         0.0391
     43 H19        -3.8927   -4.7753   -0.7779 H         1 <0>         0.0618
@<TRIPOS>BOND
     1    1   12 1
     2    1   13 1
     3    2   24 1
     4    3   24 1
     5    4   24 1
     6    5    7 1
     7    5    9 1
     8    5   10 1
     9    6   11 1
    10    6   21 1
    11    6   22 1
    12    7    8 1
    13    7   25 1
    14    7   26 1
    15    8   11 1
    16    8   27 1
    17    8   28 1
    18    9   12 ar
    19    9   14 ar
    20   10   13 ar
    21   10   15 ar
    22   11   29 1
    23   11   30 1
    24   12   17 ar
    25   13   18 ar
    26   14   16 ar
    27   14   31 1
    28   15   20 ar
    29   15   32 1
    30   16   19 ar
    31   16   24 1
    32   17   19 ar
    33   17   33 1
    34   18   23 ar
    35   18   34 1
    36   19   35 1
    37   20   23 ar
    38   20   36 1
    39   21   37 1
    40   21   38 1
    41   21   39 1
    42   22   40 1
    43   22   41 1
    44   22   42 1
    45   23   43 1
