@<TRIPOS>MOLECULE
DB00548
   29    28     0     0     0
SMALL
USER_CHARGES

@<TRIPOS>ATOM
      1 O1          6.1568   -0.3592    0.0733 O.3       1 <0>        -0.4806
      2 O2         -6.1747   -0.3711    0.1019 O.3       1 <0>        -0.4806
      3 O3          5.0162    1.6132    0.0779 O.2       1 <0>        -0.2510
      4 O4         -5.0337    1.5938    0.0312 O.2       1 <0>        -0.2510
      5 C1          0.0137    0.3573   -0.0991 C.3       1 <0>        -0.0530
      6 C2          1.2816   -0.4994   -0.0731 C.3       1 <0>        -0.0526
      7 C3         -1.2774   -0.4656   -0.0821 C.3       1 <0>        -0.0526
      8 C4          2.5375    0.3719   -0.0171 C.3       1 <0>        -0.0430
      9 C5         -2.5439    0.3905   -0.0328 C.3       1 <0>        -0.0430
     10 C6          3.8003   -0.4785    0.0477 C.3       1 <0>         0.0448
     11 C7         -3.7941   -0.4783    0.0561 C.3       1 <0>         0.0448
     12 C8          5.0276    0.3908    0.0608 C.2       1 <0>         0.3047
     13 C9         -5.0394    0.3701    0.0654 C.2       1 <0>         0.3047
     14 H1          0.0169    1.0289    0.7686 H         1 <0>         0.0265
     15 H2          0.0229    0.9945   -0.9921 H         1 <0>         0.0265
     16 H3          1.3108   -1.1385   -0.9637 H         1 <0>         0.0265
     17 H4          1.2562   -1.1619    0.8006 H         1 <0>         0.0265
     18 H5         -1.3060   -1.1082   -0.9708 H         1 <0>         0.0265
     19 H6         -1.2614   -1.1320    0.7895 H         1 <0>         0.0265
     20 H7          2.4903    1.0307    0.8593 H         1 <0>         0.0270
     21 H8          2.5696    1.0230   -0.8999 H         1 <0>         0.0270
     22 H9         -2.4985    1.0639    0.8323 H         1 <0>         0.0270
     23 H10        -2.5882    1.0260   -0.9260 H         1 <0>         0.0270
     24 H11         3.7977   -1.0886    0.9573 H         1 <0>         0.0377
     25 H12         3.8533   -1.1359   -0.8271 H         1 <0>         0.0377
     26 H13        -3.7759   -1.0731    0.9756 H         1 <0>         0.0377
     27 H14        -3.8447   -1.1510   -0.8070 H         1 <0>         0.0377
     28 H15         6.9652    0.1961    0.0919 H         1 <0>         0.2951
     29 H16        -6.9789    0.1907    0.1013 H         1 <0>         0.2951
@<TRIPOS>BOND
     1    1   12 1
     2    1   28 1
     3    2   13 1
     4    2   29 1
     5    3   12 2
     6    4   13 2
     7    5    6 1
     8    5    7 1
     9    5   14 1
    10    5   15 1
    11    6    8 1
    12    6   16 1
    13    6   17 1
    14    7    9 1
    15    7   18 1
    16    7   19 1
    17    8   10 1
    18    8   20 1
    19    8   21 1
    20    9   11 1
    21    9   22 1
    22    9   23 1
    23   10   12 1
    24   10   24 1
    25   10   25 1
    26   11   13 1
    27   11   26 1
    28   11   27 1
