@<TRIPOS>MOLECULE
DB00748
   39    40     0     0     0
SMALL
USER_CHARGES

@<TRIPOS>ATOM
      1 Cl1        -6.1685    2.9436   -0.3149 Cl        1 <0>        -0.0835
      2 O1          0.1148    0.8630    0.0030 O.3       1 <0>        -0.3646
      3 N1          3.7723    0.4659   -0.2215 N.3       1 <0>        -0.3062
      4 N2         -1.1997   -1.4355   -1.3219 N.ar      1 <0>        -0.2569
      5 C1         -0.9546    0.0954    0.5385 C.3       1 <0>         0.1254
      6 C2          1.3663    0.2146    0.1884 C.3       1 <0>         0.0616
      7 C3          2.4610    1.0869   -0.4050 C.3       1 <0>         0.0218
      8 C4         -2.2699    0.8147    0.3238 C.ar      1 <0>        -0.0130
      9 C5         -0.9600   -1.3196   -0.0071 C.ar      1 <0>         0.0744
     10 C6         -3.2959    0.6300    1.2330 C.ar      1 <0>        -0.0544
     11 C7         -2.4156    1.6396   -0.7776 C.ar      1 <0>        -0.0544
     12 C8         -0.7251   -2.3575    0.8620 C.ar      1 <0>        -0.0375
     13 C9          4.0361    0.2393    1.1989 C.3       1 <0>        -0.0130
     14 C10         4.8197    1.3002   -0.8092 C.3       1 <0>        -0.0130
     15 C11        -4.5078    1.2916    1.0347 C.ar      1 <0>        -0.0430
     16 C12        -3.6273    2.3014   -0.9760 C.ar      1 <0>        -0.0430
     17 C13        -4.6735    2.1276   -0.0698 C.ar      1 <0>         0.0410
     18 C14        -0.7368   -3.6422    0.3302 C.ar      1 <0>        -0.0585
     19 C15        -1.2033   -2.6990   -1.8027 C.ar      1 <0>         0.0280
     20 C16        -0.9797   -3.8248   -1.0267 C.ar      1 <0>        -0.0436
     21 H1         -0.7919    0.0692    1.6260 H         1 <0>         0.0712
     22 H2          1.4984    0.0679    1.2646 H         1 <0>         0.0573
     23 H3          1.4006   -0.7545   -0.3202 H         1 <0>         0.0573
     24 H4          2.2539    1.2255   -1.4741 H         1 <0>         0.0449
     25 H5          2.4185    2.0883    0.0444 H         1 <0>         0.0449
     26 H6         -3.1772   -0.0197    2.0952 H         1 <0>         0.0622
     27 H7         -1.6200    1.7811   -1.5029 H         1 <0>         0.0622
     28 H8         -0.5361   -2.2051    1.9184 H         1 <0>         0.0636
     29 H9          3.4454   -0.5915    1.5970 H         1 <0>         0.0391
     30 H10         3.8638    1.1346    1.8075 H         1 <0>         0.0391
     31 H11         5.0795   -0.0649    1.3487 H         1 <0>         0.0391
     32 H12         5.7961    0.8100   -0.7258 H         1 <0>         0.0391
     33 H13         4.8846    2.2832   -0.3286 H         1 <0>         0.0391
     34 H14         4.6371    1.4508   -1.8791 H         1 <0>         0.0391
     35 H15        -5.3144    1.1463    1.7487 H         1 <0>         0.0632
     36 H16        -3.7432    2.9474   -1.8426 H         1 <0>         0.0632
     37 H17        -0.5567   -4.4995    0.9719 H         1 <0>         0.0619
     38 H18        -1.3976   -2.7873   -2.8666 H         1 <0>         0.0829
     39 H19        -0.9934   -4.8169   -1.4629 H         1 <0>         0.0633
@<TRIPOS>BOND
     1    1   17 1
     2    2    5 1
     3    2    6 1
     4    3    7 1
     5    3   13 1
     6    3   14 1
     7    4    9 ar
     8    4   19 ar
     9    5    8 1
    10    5    9 1
    11    5   21 1
    12    6    7 1
    13    6   22 1
    14    6   23 1
    15    7   24 1
    16    7   25 1
    17    8   10 ar
    18    8   11 ar
    19    9   12 ar
    20   10   15 ar
    21   10   26 1
    22   11   16 ar
    23   11   27 1
    24   12   18 ar
    25   12   28 1
    26   13   29 1
    27   13   30 1
    28   13   31 1
    29   14   32 1
    30   14   33 1
    31   14   34 1
    32   15   17 ar
    33   15   35 1
    34   16   17 ar
    35   16   36 1
    36   18   20 ar
    37   18   37 1
    38   19   20 ar
    39   19   38 1
    40   20   39 1
