@<TRIPOS>MOLECULE
DB00628
   33    35     0     0     0
SMALL
USER_CHARGES

@<TRIPOS>ATOM
      1 Cl1        -0.7024    4.3036   -2.0763 Cl        1 <0>        -0.0835
      2 O1          3.2160   -1.5904    1.8194 O.2       1 <0>        -0.2725
      3 O2          3.7239   -2.9910   -0.6579 O.3       1 <0>        -0.4788
      4 O3          1.6233   -3.8666   -0.5255 O.2       1 <0>        -0.2480
      5 N1          2.4198    0.4548    1.1853 N.am      1 <0>        -0.2827
      6 N2          0.5308   -1.5449   -0.0573 N.2       1 <0>        -0.2586
      7 C1          0.4459    0.9135   -0.2614 C.ar      1 <0>         0.0231
      8 C2         -0.1455   -0.4478   -0.0901 C.2       1 <0>         0.0760
      9 C3          1.6011    1.3171    0.4273 C.ar      1 <0>         0.0428
     10 C4          1.9673   -1.4954   -0.2319 C.3       1 <0>         0.2230
     11 C5         -1.6208   -0.5700    0.0909 C.ar      1 <0>         0.0006
     12 C6          2.5661   -0.9080    1.0257 C.2       1 <0>         0.2529
     13 C7         -0.2499    1.8426   -1.0523 C.ar      1 <0>        -0.0324
     14 C8          1.9772    2.6685    0.3969 C.ar      1 <0>        -0.0385
     15 C9          0.1651    3.1723   -1.1120 C.ar      1 <0>         0.0417
     16 C10         1.2675    3.5890   -0.3739 C.ar      1 <0>        -0.0416
     17 C11        -2.3240    0.4583    0.7052 C.ar      1 <0>        -0.0526
     18 C12        -2.2743   -1.7110   -0.3567 C.ar      1 <0>        -0.0526
     19 C13         2.3821   -2.9095   -0.4835 C.2       1 <0>         0.3387
     20 C14        -3.7039    0.3437    0.8749 C.ar      1 <0>        -0.0611
     21 C15        -3.6540   -1.8257   -0.1872 C.ar      1 <0>        -0.0611
     22 C16        -4.3687   -0.7983    0.4285 C.ar      1 <0>        -0.0617
     23 H1          2.2541   -0.9182   -1.1199 H         1 <0>         0.0760
     24 H2          3.0154    0.8930    1.8835 H         1 <0>         0.1549
     25 H3         -1.1213    1.5356   -1.6273 H         1 <0>         0.0639
     26 H4          2.8498    3.0121    0.9487 H         1 <0>         0.0637
     27 H5          1.5945    4.6254   -0.3961 H         1 <0>         0.0633
     28 H6         -1.8371    1.3432    1.1041 H         1 <0>         0.0624
     29 H7         -1.7403   -2.5203   -0.8472 H         1 <0>         0.0624
     30 H8         -4.2594    1.1393    1.3629 H         1 <0>         0.0618
     31 H9         -4.1723   -2.7141   -0.5360 H         1 <0>         0.0618
     32 H10        -5.4428   -0.8884    0.5621 H         1 <0>         0.0618
     33 H11         4.0167   -3.9125   -0.8230 H         1 <0>         0.2951
@<TRIPOS>BOND
     1    1   15 1
     2    2   12 2
     3    3   19 1
     4    3   33 1
     5    4   19 2
     6    5    9 1
     7    5   12 am
     8    5   24 1
     9    6    8 2
    10    6   10 1
    11    7    8 1
    12    7    9 ar
    13    7   13 ar
    14    8   11 1
    15    9   14 ar
    16   10   12 1
    17   10   19 1
    18   10   23 1
    19   11   17 ar
    20   11   18 ar
    21   13   15 ar
    22   13   25 1
    23   14   16 ar
    24   14   26 1
    25   15   16 ar
    26   16   27 1
    27   17   20 ar
    28   17   28 1
    29   18   21 ar
    30   18   29 1
    31   20   22 ar
    32   20   30 1
    33   21   22 ar
    34   21   31 1
    35   22   32 1
