@<TRIPOS>MOLECULE
DB00774
   28    29     0     0     0
SMALL
USER_CHARGES

@<TRIPOS>ATOM
      1 S1         -2.3392    1.7985   -0.0745 S.o2      1 <0>         0.0616
      2 S2          2.9850    0.9982   -0.5149 S.o2      1 <0>         0.0566
      3 F1          1.9672   -3.3085   -0.0728 F         1 <0>        -0.1658
      4 F2          3.0450   -1.9530   -1.3786 F         1 <0>        -0.1658
      5 F3          3.2466   -1.7703    0.7791 F         1 <0>        -0.1658
      6 O1         -2.4468    2.2875    1.2857 O.2       1 <0>        -0.1529
      7 O2         -2.1707    2.6990   -1.1975 O.2       1 <0>        -0.1529
      8 O3          3.7945   -0.0573   -1.1182 O.2       1 <0>        -0.1532
      9 O4          2.7809    2.2614   -1.2168 O.2       1 <0>        -0.1532
     10 N1         -2.4794   -1.2853    0.1997 N.pl3     1 <0>        -0.3284
     11 N2         -3.6468    0.7522   -0.4132 N.pl3     1 <0>        -0.1728
     12 N3          3.6569    1.3464    1.0301 N.pl3     1 <0>        -0.2035
     13 C1         -0.9904    0.6587   -0.0854 C.ar      1 <0>         0.1279
     14 C2         -1.2223   -0.7187    0.0535 C.ar      1 <0>         0.0554
     15 C3          1.3849    0.3242   -0.2986 C.ar      1 <0>         0.1186
     16 C4          1.1896   -1.0481   -0.1703 C.ar      1 <0>         0.0829
     17 C5          0.2928    1.1849   -0.2601 C.ar      1 <0>        -0.0066
     18 C6         -3.6719   -0.4878    0.3830 C.3       1 <0>         0.0798
     19 C7         -0.1000   -1.5611   -0.0004 C.ar      1 <0>        -0.0254
     20 C8          2.3387   -2.0026   -0.2118 C.3       1 <0>         0.4193
     21 H1          0.4250    2.2594   -0.3496 H         1 <0>         0.0657
     22 H2         -4.5467   -1.0738    0.0834 H         1 <0>         0.0644
     23 H3         -3.7972   -0.2373    1.4423 H         1 <0>         0.0644
     24 H4         -0.2474   -2.6358    0.0940 H         1 <0>         0.0643
     25 H5         -2.5445   -2.2862    0.3455 H         1 <0>         0.1474
     26 H6         -3.9163    0.6402   -1.3987 H         1 <0>         0.1498
     27 H7          3.7977    2.3445    1.2365 H         1 <0>         0.1442
     28 H8          3.2147    0.8708    1.8285 H         1 <0>         0.1442
@<TRIPOS>BOND
     1    1    6 2
     2    1    7 2
     3    1   11 1
     4    1   13 1
     5    2    8 2
     6    2    9 2
     7    2   12 1
     8    2   15 1
     9    3   20 1
    10    4   20 1
    11    5   20 1
    12   10   14 1
    13   10   18 1
    14   10   25 1
    15   11   18 1
    16   11   26 1
    17   12   27 1
    18   12   28 1
    19   13   14 ar
    20   13   17 ar
    21   14   19 ar
    22   15   16 ar
    23   15   17 ar
    24   16   19 ar
    25   16   20 1
    26   17   21 1
    27   18   22 1
    28   18   23 1
    29   19   24 1
