@<TRIPOS>MOLECULE
DB00235
   25    26     0     0     0
SMALL
USER_CHARGES

@<TRIPOS>ATOM
      1 O1         -4.3478    0.4407   -0.0000 O.2       1 <0>        -0.2665
      2 N1         -2.2045    1.2730   -0.0000 N.am      1 <0>        -0.3249
      3 N2          3.8886   -0.7519   -0.0002 N.ar      1 <0>        -0.2632
      4 N3         -4.1376   -3.1854    0.0000 N.1       1 <0>        -0.1907
      5 C1         -0.3183   -0.1516    0.0004 C.2       1 <0>         0.0026
      6 C2         -0.8323    1.0992   -0.0001 C.2       1 <0>         0.0237
      7 C3          1.1262   -0.3582    0.0002 C.ar      1 <0>        -0.0134
      8 C4         -1.2370   -1.2829    0.0003 C.2       1 <0>        -0.0297
      9 C5         -2.5696   -1.1346    0.0002 C.2       1 <0>         0.1165
     10 C6         -0.0459    2.3810   -0.0004 C.3       1 <0>        -0.0238
     11 C7         -3.1336    0.2487    0.0007 C.2       1 <0>         0.2664
     12 C8          1.8120   -0.4563   -1.2025 C.ar      1 <0>        -0.0358
     13 C9          1.8124   -0.4556    1.2027 C.ar      1 <0>        -0.0358
     14 C10         3.1827   -0.6516   -1.1488 C.ar      1 <0>         0.0281
     15 C11         3.1831   -0.6511    1.1487 C.ar      1 <0>         0.0281
     16 C12        -3.4331   -2.2637    0.0001 C.1       1 <0>         0.1046
     17 H1         -0.7928   -2.2760    0.0002 H         1 <0>         0.0639
     18 H2         -2.5531    2.2278   -0.0002 H         1 <0>         0.1686
     19 H3         -0.2942    2.9741    0.8867 H         1 <0>         0.0292
     20 H4         -0.2940    2.9736   -0.8879 H         1 <0>         0.0292
     21 H5          1.0374    2.2376   -0.0002 H         1 <0>         0.0292
     22 H6          1.3072   -0.3844   -2.1603 H         1 <0>         0.0639
     23 H7          1.3080   -0.3832    2.1607 H         1 <0>         0.0639
     24 H8          3.7678   -0.7350   -2.0588 H         1 <0>         0.0830
     25 H9          3.7685   -0.7341    2.0585 H         1 <0>         0.0830
@<TRIPOS>BOND
     1    1   11 2
     2    2    6 1
     3    2   11 am
     4    2   18 1
     5    3   14 ar
     6    3   15 ar
     7    4   16 3
     8    5    6 2
     9    5    7 1
    10    5    8 1
    11    6   10 1
    12    7   12 ar
    13    7   13 ar
    14    8    9 2
    15    8   17 1
    16    9   11 1
    17    9   16 1
    18   10   19 1
    19   10   20 1
    20   10   21 1
    21   12   14 ar
    22   12   22 1
    23   13   15 ar
    24   13   23 1
    25   14   24 1
    26   15   25 1
