@<TRIPOS>MOLECULE
DB00630
   27    26     0     0     0
SMALL
USER_CHARGES

@<TRIPOS>ATOM
      1 P1          1.8284    1.4845    0.3544 P.3       1 <0>         0.3673
      2 P2          1.3939   -1.5541   -0.6494 P.3       1 <0>         0.1772
      3 O1          1.5150   -0.6139    1.7405 O.3       1 <0>        -0.3697
      4 O2          1.7017    1.8564   -1.2126 O.3       1 <0>        -0.3218
      5 O3          3.3924    1.1021    0.5064 O.3       1 <0>        -0.3218
      6 O4          3.0172   -1.5433   -0.4952 O.3       1 <0>        -0.3511
      7 O5          1.3393    2.5387    1.3027 O.2       1 <0>        -0.2553
      8 O6          0.8558   -2.8175   -0.0156 O.3       1 <0>        -0.7791
      9 O7          1.0216   -1.1509   -2.0579 O.2       1 <0>        -0.3035
     10 N1         -3.3812   -0.6877    0.1059 N.4       1 <0>         0.2185
     11 C1          0.9782   -0.1298    0.4984 C.3       1 <0>         0.2297
     12 C2         -0.5411    0.0316    0.7251 C.3       1 <0>         0.0003
     13 C3         -1.3180    0.5435   -0.4881 C.3       1 <0>        -0.0090
     14 C4         -2.8207    0.6389   -0.2429 C.3       1 <0>        -0.0353
     15 H1         -0.7122    0.7048    1.5747 H         1 <0>         0.0306
     16 H2         -0.9317   -0.9432    1.0387 H         1 <0>         0.0306
     17 H3         -0.9505    1.5365   -0.7684 H         1 <0>         0.0318
     18 H4         -1.1490   -0.1138   -1.3464 H         1 <0>         0.0318
     19 H5         -3.0584    1.3137    0.5848 H         1 <0>         0.0813
     20 H6         -3.3416    0.9745   -1.1446 H         1 <0>         0.0813
     21 H7          2.4603   -0.7938    1.6067 H         1 <0>         0.2116
     22 H8         -4.4087   -0.6518    0.1411 H         1 <0>         0.1994
     23 H9         -3.0640   -1.0139    1.0278 H         1 <0>         0.1994
     24 H10        -3.1257   -1.4039   -0.5869 H         1 <0>         0.1994
     25 H11         2.0625    2.7118   -1.5288 H         1 <0>         0.2198
     26 H12         3.6973    0.1888    0.3223 H         1 <0>         0.2198
     27 H13         3.5391   -2.2082   -0.9928 H         1 <0>         0.2167
@<TRIPOS>BOND
     1    1    4 1
     2    1    5 1
     3    1    7 2
     4    1   11 1
     5    2    6 1
     6    2    8 1
     7    2    9 2
     8    2   11 1
     9    3   11 1
    10    3   21 1
    11    4   25 1
    12    5   26 1
    13    6   27 1
    14   10   14 1
    15   10   22 1
    16   10   23 1
    17   10   24 1
    18   11   12 1
    19   12   13 1
    20   12   15 1
    21   12   16 1
    22   13   14 1
    23   13   17 1
    24   13   18 1
    25   14   19 1
    26   14   20 1
