@<TRIPOS>MOLECULE
DB00627
   14    14     0     0     0
SMALL
USER_CHARGES

@<TRIPOS>ATOM
      1 O1          2.6903    0.6436   -0.0006 O.3       1 <0>        -0.4771
      2 O2          2.3324   -1.6011    0.0005 O.2       1 <0>        -0.2451
      3 N1         -1.2297    1.6200    0.0001 N.ar      1 <0>        -0.2624
      4 C1          0.4700   -0.0994    0.0003 C.ar      1 <0>         0.0769
      5 C2         -0.5138   -1.0820    0.0001 C.ar      1 <0>        -0.0449
      6 C3          0.0634    1.2252    0.0003 C.ar      1 <0>         0.0415
      7 C4         -1.8550   -0.7153   -0.0002 C.ar      1 <0>        -0.0428
      8 C5         -2.1576    0.6368   -0.0001 C.ar      1 <0>         0.0276
      9 C6          1.8793   -0.4506    0.0005 C.2       1 <0>         0.3383
     10 H1         -0.2545   -2.1372    0.0001 H         1 <0>         0.0627
     11 H2          0.7636    2.0545    0.0005 H         1 <0>         0.0838
     12 H3         -2.6389   -1.4641   -0.0004 H         1 <0>         0.0633
     13 H4         -3.1885    0.9752   -0.0003 H         1 <0>         0.0829
     14 H5          3.6391    0.3943   -0.0009 H         1 <0>         0.2954
@<TRIPOS>BOND
     1    1    9 1
     2    1   14 1
     3    2    9 2
     4    3    6 ar
     5    3    8 ar
     6    4    5 ar
     7    4    6 ar
     8    4    9 1
     9    5    7 ar
    10    5   10 1
    11    6   11 1
    12    7    8 ar
    13    7   12 1
    14    8   13 1
