@<TRIPOS>MOLECULE
DB00423
   32    32     0     0     0
SMALL
USER_CHARGES

@<TRIPOS>ATOM
      1 O1         -0.7998   -0.0229   -0.9178 O.3       1 <0>        -0.4856
      2 O2          1.8024    0.5348   -1.7792 O.3       1 <0>        -0.3850
      3 O3          3.9051    0.2001    0.0673 O.3       1 <0>        -0.4478
      4 O4         -2.7736    1.9155   -0.6446 O.3       1 <0>        -0.4915
      5 O5          5.2083   -1.5141    0.8816 O.2       1 <0>        -0.2267
      6 N1          6.0955    0.5647    0.4588 N.am      1 <0>        -0.2950
      7 C1          1.5483    0.0991   -0.4417 C.3       1 <0>         0.1231
      8 C2          0.3111   -0.7888   -0.4635 C.3       1 <0>         0.1188
      9 C3          2.7696   -0.6588    0.0660 C.3       1 <0>         0.1231
     10 C4         -2.0273   -0.3543   -0.4827 C.ar      1 <0>         0.1620
     11 C5         -3.0344    0.6138   -0.3400 C.ar      1 <0>         0.1615
     12 C6         -2.3238   -1.6883   -0.1606 C.ar      1 <0>        -0.0163
     13 C7         -4.3047    0.2569    0.1127 C.ar      1 <0>        -0.0163
     14 C8         -3.5939   -2.0452    0.2921 C.ar      1 <0>        -0.0581
     15 C9         -4.5843   -1.0727    0.4288 C.ar      1 <0>        -0.0581
     16 C10         5.0770   -0.3550    0.5026 C.2       1 <0>         0.3977
     17 C11        -2.2849    2.7516    0.3845 C.3       1 <0>         0.0790
     18 H1          1.3790    1.0026    0.1550 H         1 <0>         0.0662
     19 H2          0.1459   -1.1718    0.5517 H         1 <0>         0.0724
     20 H3          0.4555   -1.6260   -1.1568 H         1 <0>         0.0724
     21 H4          2.9808   -1.5094   -0.5938 H         1 <0>         0.0725
     22 H5          2.5889   -1.0242    1.0836 H         1 <0>         0.0725
     23 H6         -1.5903   -2.4816   -0.2766 H         1 <0>         0.0655
     24 H7          1.0083    1.0043   -2.0878 H         1 <0>         0.2101
     25 H8         -5.0814    1.0090    0.2209 H         1 <0>         0.0655
     26 H9         -3.8140   -3.0812    0.5327 H         1 <0>         0.0619
     27 H10        -5.5736   -1.3508    0.7799 H         1 <0>         0.0619
     28 H11        -1.3292    2.3792    0.7676 H         1 <0>         0.0660
     29 H12        -3.0094    2.8239    1.2020 H         1 <0>         0.0660
     30 H13        -2.1260    3.7525   -0.0265 H         1 <0>         0.0660
     31 H14         5.9370    1.5136    0.1368 H         1 <0>         0.1482
     32 H15         7.0377    0.3237    0.7469 H         1 <0>         0.1482
@<TRIPOS>BOND
     1    1    8 1
     2    1   10 1
     3    2    7 1
     4    2   24 1
     5    3    9 1
     6    3   16 1
     7    4   11 1
     8    4   17 1
     9    5   16 2
    10    6   16 am
    11    6   31 1
    12    6   32 1
    13    7    8 1
    14    7    9 1
    15    7   18 1
    16    8   19 1
    17    8   20 1
    18    9   21 1
    19    9   22 1
    20   10   11 ar
    21   10   12 ar
    22   11   13 ar
    23   12   14 ar
    24   12   23 1
    25   13   15 ar
    26   13   25 1
    27   14   15 ar
    28   14   26 1
    29   15   27 1
    30   17   28 1
    31   17   29 1
    32   17   30 1
