@<TRIPOS>MOLECULE
DB00724
   34    36     0     0     0
SMALL
USER_CHARGES

@<TRIPOS>ATOM
      1 N1         -0.8979    0.8333    0.7932 N.pl3     1 <0>        -0.3292
      2 N2         -0.1491    2.8895    0.4109 N.2       1 <0>        -0.2323
      3 N3          3.0249    1.1142   -0.2984 N.2       1 <0>        -0.2301
      4 N4          2.6718    3.4742   -0.4070 N.pl3     1 <0>        -0.3414
      5 C1         -1.8640   -0.1812    1.1446 C.3       1 <0>         0.0270
      6 C2         -2.6491   -0.7361   -0.0572 C.3       1 <0>        -0.0287
      7 C3          0.4220    0.6825    0.4473 C.2       1 <0>         0.0813
      8 C4          1.2661   -0.4341    0.3143 C.ar      1 <0>         0.0261
      9 C5          0.8631    1.9801    0.2146 C.2       1 <0>         0.1289
     10 C6         -1.1911    2.1680    0.7572 C.cat     1 <0>         0.0972
     11 C7         -1.7253   -1.3294   -1.1232 C.3       1 <0>        -0.0610
     12 C8         -3.5034    0.3740   -0.6727 C.3       1 <0>        -0.0610
     13 C9          2.5900   -0.1424   -0.0713 C.ar      1 <0>         0.0752
     14 C10         2.1885    2.1757   -0.1630 C.2       1 <0>         0.1445
     15 C11         0.8248   -1.7514    0.5482 C.ar      1 <0>        -0.0505
     16 C12         3.4549   -1.2229   -0.2133 C.ar      1 <0>        -0.0356
     17 C13         1.7208   -2.8029    0.3957 C.ar      1 <0>        -0.0610
     18 C14         3.0338   -2.5390    0.0151 C.ar      1 <0>        -0.0597
     19 H1         -2.5785    0.2991    1.8291 H         1 <0>         0.0495
     20 H2         -1.4045   -0.9440    1.7702 H         1 <0>         0.0495
     21 H3         -3.3236   -1.5218    0.3048 H         1 <0>         0.0313
     22 H4         -2.1706    2.5607    0.9949 H         1 <0>         0.1029
     23 H5         -2.3238   -1.5825   -2.0086 H         1 <0>         0.0233
     24 H6         -0.9557   -0.6429   -1.4793 H         1 <0>         0.0233
     25 H7         -1.2950   -2.2795   -0.8060 H         1 <0>         0.0233
     26 H8         -4.1903   -0.0497   -1.4143 H         1 <0>         0.0233
     27 H9         -4.1146    0.8747    0.0854 H         1 <0>         0.0233
     28 H10        -2.9006    1.1261   -1.1911 H         1 <0>         0.0233
     29 H11        -0.1517   -2.0287    0.8988 H         1 <0>         0.0625
     30 H12         4.4887   -1.0525   -0.5088 H         1 <0>         0.0639
     31 H13         1.4038   -3.8243    0.5841 H         1 <0>         0.0618
     32 H14         3.7382   -3.3578   -0.1026 H         1 <0>         0.0618
     33 H15         3.6371    3.5975   -0.6808 H         1 <0>         0.1438
     34 H16         2.0603    4.2735   -0.3105 H         1 <0>         0.1438
@<TRIPOS>BOND
     1    1    5 1
     2    1    7 1
     3    1   10 2
     4    2    9 2
     5    2   10 1
     6    3   13 2
     7    3   14 1
     8    4   14 1
     9    4   33 1
    10    4   34 1
    11    5    6 1
    12    5   19 1
    13    5   20 1
    14    6   11 1
    15    6   12 1
    16    6   21 1
    17    7    8 2
    18    7    9 1
    19    8   13 ar
    20    8   15 ar
    21    9   14 2
    22   10   22 1
    23   11   23 1
    24   11   24 1
    25   11   25 1
    26   12   26 1
    27   12   27 1
    28   12   28 1
    29   13   16 ar
    30   15   17 ar
    31   15   29 1
    32   16   18 ar
    33   16   30 1
    34   17   18 ar
    35   17   31 1
    36   18   32 1
