@<TRIPOS>MOLECULE
DB00640
   32    34     0     0     0
SMALL
USER_CHARGES

@<TRIPOS>ATOM
      1 O1          1.5555    0.4315    1.0758 O.3       1 <0>        -0.3457
      2 O2          0.8547   -2.1836   -1.2887 O.3       1 <0>        -0.3847
      3 O3          3.0346   -2.1295    0.3332 O.3       1 <0>        -0.3864
      4 O4          3.2876    2.6042    0.6996 O.3       1 <0>        -0.3924
      5 N1         -0.6452    0.1788    0.2254 N.pl3     1 <0>        -0.2855
      6 N2         -2.1147    1.8096   -0.1738 N.2       1 <0>        -0.2306
      7 N3         -2.1671   -1.6988    0.4719 N.2       1 <0>        -0.2159
      8 N4         -4.4891   -1.0032    0.1884 N.2       1 <0>        -0.2188
      9 N5         -5.1040    1.2630   -0.2742 N.pl3     1 <0>        -0.3413
     10 C1          1.3250   -0.9247   -0.8520 C.3       1 <0>         0.1285
     11 C2          0.6431   -0.4788    0.4325 C.3       1 <0>         0.1667
     12 C3          2.7803   -0.9490   -0.4281 C.3       1 <0>         0.1135
     13 C4          2.8698    0.2611    0.4964 C.3       1 <0>         0.1126
     14 C5          3.2406    1.5423   -0.2373 C.3       1 <0>         0.0730
     15 C6         -1.8800   -0.4071    0.2517 C.2       1 <0>         0.1674
     16 C7         -0.8399    1.5110   -0.0332 C.cat     1 <0>         0.1004
     17 C8         -2.7759    0.6201    0.0017 C.2       1 <0>         0.1473
     18 C9         -4.1258    0.2844   -0.0262 C.2       1 <0>         0.1472
     19 C10        -3.5016   -1.9015    0.4207 C.2       1 <0>         0.1205
     20 H1          1.1745   -0.1955   -1.6566 H         1 <0>         0.0665
     21 H2          0.4651   -1.3142    1.1209 H         1 <0>         0.0866
     22 H3          3.4785   -0.9361   -1.2698 H         1 <0>         0.0647
     23 H4          3.5607    0.0971    1.3313 H         1 <0>         0.0647
     24 H5          2.5043    1.8067   -1.0025 H         1 <0>         0.0584
     25 H6          4.2235    1.4555   -0.7095 H         1 <0>         0.0584
     26 H7          1.0403   -2.8331   -0.5892 H         1 <0>         0.2101
     27 H8          3.9606   -2.0906    0.6277 H         1 <0>         0.2100
     28 H9         -0.0232    2.2152   -0.1136 H         1 <0>         0.1030
     29 H10         2.4102    2.6686    1.1140 H         1 <0>         0.2095
     30 H11        -3.8284   -2.9221    0.5881 H         1 <0>         0.1048
     31 H12        -4.8355    2.2244   -0.4349 H         1 <0>         0.1438
     32 H13        -6.0784    0.9941   -0.2897 H         1 <0>         0.1438
@<TRIPOS>BOND
     1    1   11 1
     2    1   13 1
     3    2   10 1
     4    2   26 1
     5    3   12 1
     6    3   27 1
     7    4   14 1
     8    4   29 1
     9    5   11 1
    10    5   15 1
    11    5   16 2
    12    6   16 1
    13    6   17 2
    14    7   15 2
    15    7   19 1
    16    8   18 1
    17    8   19 2
    18    9   18 1
    19    9   31 1
    20    9   32 1
    21   10   11 1
    22   10   12 1
    23   10   20 1
    24   11   21 1
    25   12   13 1
    26   12   22 1
    27   13   14 1
    28   13   23 1
    29   14   24 1
    30   14   25 1
    31   15   17 1
    32   16   28 1
    33   17   18 2
    34   19   30 1
