@<TRIPOS>MOLECULE
DB00698
   23    24     0     0     0
SMALL
USER_CHARGES

@<TRIPOS>ATOM
      1 O1          2.3458   -0.7674    0.0000 O.3       1 <0>        -0.3992
      2 O2         -4.6293   -1.9288   -0.0007 O.2       1 <0>        -0.2736
      3 O3         -3.2423    2.4458    0.0004 O.2       1 <0>        -0.2504
      4 O4          5.8398   -0.6998   -0.0007 O.3       1 <0>        -0.5735
      5 O5          4.4078   -2.3693    0.0009 O.2       1 <0>         0.0446
      6 N1         -2.0860    0.4015    0.0000 N.am      1 <0>        -0.1678
      7 N2         -4.2983    0.3723    0.0001 N.am      1 <0>        -0.2373
      8 N3         -0.8331    0.8796   -0.0003 N.2       1 <0>        -0.1802
      9 N4          4.6481   -1.1264   -0.0001 N.pl3     1 <0>         0.1186
     10 C1         -2.3863   -1.0016    0.0002 C.3       1 <0>         0.1159
     11 C2         -3.9023   -0.9452    0.0004 C.2       1 <0>         0.2399
     12 C3         -3.2106    1.2230    0.0002 C.2       1 <0>         0.3284
     13 C4          1.4931    0.2726   -0.0002 C.2       1 <0>         0.1545
     14 C5          0.0742   -0.0431   -0.0004 C.2       1 <0>         0.0884
     15 C6          2.1288    1.4697   -0.0002 C.2       1 <0>        -0.0078
     16 C7          3.5883   -0.2176    0.0003 C.2       1 <0>         0.4380
     17 C8          3.5088    1.1557    0.0002 C.2       1 <0>         0.0595
     18 H1         -2.0463   -1.4867    0.9190 H         1 <0>         0.0582
     19 H2         -2.0466   -1.4867   -0.9187 H         1 <0>         0.0582
     20 H3         -5.2640    0.6797    0.0000 H         1 <0>         0.1592
     21 H4         -0.1090   -1.1305   -0.0006 H         1 <0>         0.0883
     22 H5          1.6816    2.4534   -0.0004 H         1 <0>         0.0658
     23 H6          4.3377    1.8496    0.0003 H         1 <0>         0.0722
@<TRIPOS>BOND
     1    1   13 1
     2    1   16 1
     3    2   11 2
     4    3   12 2
     5    4    9 1
     6    5    9 2
     7    6    8 1
     8    6   10 1
     9    6   12 am
    10    7   11 am
    11    7   12 am
    12    7   20 1
    13    8   14 2
    14    9   16 1
    15   10   11 1
    16   10   18 1
    17   10   19 1
    18   13   14 1
    19   13   15 2
    20   14   21 1
    21   15   17 1
    22   15   22 1
    23   16   17 2
    24   17   23 1
