@<TRIPOS>MOLECULE
DB00586
   30    31     0     0     0
SMALL
USER_CHARGES

@<TRIPOS>ATOM
      1 Cl1        -1.8718    0.5027    2.7776 Cl        1 <0>        -0.0816
      2 Cl2        -1.3918   -1.1669   -2.3979 Cl        1 <0>        -0.0816
      3 O1          3.1023   -3.2745    0.1480 O.3       1 <0>        -0.4804
      4 O2          2.5764   -1.8166   -1.5109 O.2       1 <0>        -0.2507
      5 N1         -0.3450   -0.3753    0.3231 N.pl3     1 <0>        -0.3120
      6 C1          2.0098    0.2652    0.3348 C.ar      1 <0>        -0.0156
      7 C2          0.6704    0.5825    0.1089 C.ar      1 <0>         0.0351
      8 C3          2.4121   -1.0933    0.8088 C.3       1 <0>         0.0716
      9 C4         -1.7438   -0.3285    0.1782 C.ar      1 <0>         0.0684
     10 C5          2.9999    1.2231    0.1166 C.ar      1 <0>        -0.0563
     11 C6          0.3212    1.8580   -0.3351 C.ar      1 <0>        -0.0403
     12 C7          2.6507    2.4985   -0.3274 C.ar      1 <0>        -0.0614
     13 C8          1.3113    2.8159   -0.5533 C.ar      1 <0>        -0.0600
     14 C9         -2.5524    0.0648    1.2506 C.ar      1 <0>         0.0635
     15 C10        -2.3400   -0.6739   -1.0397 C.ar      1 <0>         0.0635
     16 C11         2.6944   -2.0649   -0.3188 C.2       1 <0>         0.3091
     17 C12        -3.9390    0.1121    1.1069 C.ar      1 <0>        -0.0415
     18 C13        -3.7266   -0.6267   -1.1835 C.ar      1 <0>        -0.0415
     19 C14        -4.5261   -0.2338   -0.1102 C.ar      1 <0>        -0.0589
     20 H1          1.6694   -1.5270    1.4866 H         1 <0>         0.0427
     21 H2          3.3348   -1.0059    1.3980 H         1 <0>         0.0427
     22 H3         -0.0142   -1.3340    0.3662 H         1 <0>         0.1522
     23 H4          4.0481    0.9901    0.2852 H         1 <0>         0.0621
     24 H5         -0.7134    2.1337   -0.5198 H         1 <0>         0.0636
     25 H6          3.4215    3.2442   -0.4981 H         1 <0>         0.0618
     26 H7          1.0398    3.8089   -0.8993 H         1 <0>         0.0618
     27 H8         -4.5767    0.4162    1.9331 H         1 <0>         0.0633
     28 H9         -4.2003   -0.8928   -2.1251 H         1 <0>         0.0633
     29 H10        -5.6058   -0.1970   -0.2223 H         1 <0>         0.0618
     30 H11         3.2848   -3.9048   -0.5812 H         1 <0>         0.2951
@<TRIPOS>BOND
     1    1   14 1
     2    2   15 1
     3    3   16 1
     4    3   30 1
     5    4   16 2
     6    5    7 1
     7    5    9 1
     8    5   22 1
     9    6    7 ar
    10    6    8 1
    11    6   10 ar
    12    7   11 ar
    13    8   16 1
    14    8   20 1
    15    8   21 1
    16    9   14 ar
    17    9   15 ar
    18   10   12 ar
    19   10   23 1
    20   11   13 ar
    21   11   24 1
    22   12   13 ar
    23   12   25 1
    24   13   26 1
    25   14   17 ar
    26   15   18 ar
    27   17   19 ar
    28   17   27 1
    29   18   19 ar
    30   18   28 1
    31   19   29 1
