@<TRIPOS>MOLECULE
DB00927
   35    35     0     0     0
SMALL
USER_CHARGES

@<TRIPOS>ATOM
      1 S1          1.2756    1.5666   -1.1326 S.3       1 <0>        -0.1539
      2 S2          1.5314   -2.7786    0.1541 S.o2      1 <0>         0.2163
      3 S3         -3.3126    2.7673    0.2211 S.3       1 <0>        -0.0380
      4 O1          2.4174   -3.6683    0.8872 O.2       1 <0>        -0.1133
      5 O2          1.3848   -2.9491   -1.2826 O.2       1 <0>        -0.1133
      6 N1          1.9697   -1.2340    0.4579 N.2       1 <0>         0.1007
      7 N2         -1.5647    0.9472    0.7820 N.2       1 <0>        -0.2105
      8 N3          4.1100   -1.4249   -0.6266 N.pl3     1 <0>        -0.2487
      9 N4         -3.8441    0.2915    0.9575 N.2       1 <0>        -0.0449
     10 N5         -0.0381   -2.9921    0.8305 N.pl3     1 <0>        -0.1684
     11 N6         -5.2657   -1.4058   -0.0147 N.pl3     1 <0>        -0.2889
     12 N7         -3.7379   -0.2992   -1.2966 N.pl3     1 <0>        -0.2889
     13 C1          3.4073    0.6869    0.4227 C.3       1 <0>         0.0616
     14 C2          3.0411    1.6466   -0.7053 C.3       1 <0>         0.0050
     15 C3          0.5985    2.0636    0.4673 C.3       1 <0>         0.0366
     16 C4          3.1187   -0.7685    0.0653 C.2       1 <0>         0.3130
     17 C5         -0.8947    2.0971    0.4438 C.2       1 <0>         0.0619
     18 C6         -1.6534    3.1870    0.1105 C.2       1 <0>         0.0027
     19 C7         -2.8551    1.1841    0.6993 C.2       1 <0>         0.2715
     20 C8         -4.2782   -0.4428   -0.0397 C.2       1 <0>         0.3841
     21 H1          2.9260    0.9412    1.3711 H         1 <0>         0.0395
     22 H2          4.4850    0.7767    0.6124 H         1 <0>         0.0395
     23 H3          3.2985    2.6746   -0.4310 H         1 <0>         0.0382
     24 H4          3.6071    1.3973   -1.6091 H         1 <0>         0.0382
     25 H5          0.9902    3.0506    0.7372 H         1 <0>         0.0440
     26 H6          0.8931    1.3591    1.2489 H         1 <0>         0.0440
     27 H7         -1.3372    4.1777   -0.1835 H         1 <0>         0.0713
     28 H8          4.9736   -0.9610   -0.8883 H         1 <0>         0.2881
     29 H9          4.0111   -2.3947   -0.9063 H         1 <0>         0.2881
     30 H10        -0.8026   -2.4713    0.3817 H         1 <0>         0.1477
     31 H11        -0.0992   -2.9694    1.8566 H         1 <0>         0.1477
     32 H12        -5.7590   -1.6268    0.8435 H         1 <0>         0.2547
     33 H13        -5.5259   -1.9201   -0.8491 H         1 <0>         0.2547
     34 H14        -4.0720   -0.8670   -2.0683 H         1 <0>         0.2547
     35 H15        -2.9989    0.3586   -1.5169 H         1 <0>         0.2547
@<TRIPOS>BOND
     1    1   14 1
     2    1   15 1
     3    2    4 2
     4    2    5 2
     5    2    6 1
     6    2   10 1
     7    3   18 1
     8    3   19 1
     9    6   16 2
    10    7   17 1
    11    7   19 2
    12    8   16 1
    13    8   28 1
    14    8   29 1
    15    9   19 1
    16    9   20 2
    17   10   30 1
    18   10   31 1
    19   11   20 1
    20   11   32 1
    21   11   33 1
    22   12   20 1
    23   12   34 1
    24   12   35 1
    25   13   14 1
    26   13   16 1
    27   13   21 1
    28   13   22 1
    29   14   23 1
    30   14   24 1
    31   15   17 1
    32   15   25 1
    33   15   26 1
    34   17   18 2
    35   18   27 1
