@<TRIPOS>MOLECULE
DB00239
   39    41     0     0     0
SMALL
USER_CHARGES

@<TRIPOS>ATOM
      1 Cl1        -2.5882   -2.8507    1.7295 Cl        1 <0>        -0.0828
      2 Cl2         3.0754    1.1533   -2.3024 Cl        1 <0>        -0.0831
      3 Cl3        -7.0595   -1.5522   -0.9673 Cl        1 <0>        -0.0835
      4 Cl4         7.4259    0.0160    0.6561 Cl        1 <0>        -0.0835
      5 O1          0.9031   -0.6785   -0.1196 O.3       1 <0>        -0.3887
      6 N1         -0.9443    1.8929    0.9468 N.pl3     1 <0>        -0.3309
      7 N2         -0.3960   -1.0287   -0.5004 N.2       1 <0>        -0.0868
      8 N3         -1.6594    3.9225    0.4890 N.2       1 <0>        -0.2441
      9 C1         -0.9709    0.4985    1.3938 C.3       1 <0>         0.0700
     10 C2         -1.3185   -0.4702    0.2514 C.2       1 <0>         0.1081
     11 C3         -2.7202   -0.7635   -0.0221 C.ar      1 <0>         0.0196
     12 C4         -3.3874   -1.8210    0.5963 C.ar      1 <0>         0.0514
     13 C5         -3.3947    0.0495   -0.9330 C.ar      1 <0>        -0.0499
     14 C6          0.1396    2.5440    0.4645 C.cat     1 <0>         0.0244
     15 C7          3.2137   -0.9697   -0.6001 C.ar      1 <0>         0.0106
     16 C8          1.8113   -1.3324   -0.9917 C.3       1 <0>         0.1443
     17 C9         -2.0012    2.7397    0.9495 C.cat     1 <0>         0.0962
     18 C10        -4.7290   -2.0654    0.3035 C.ar      1 <0>        -0.0244
     19 C11        -4.7363   -0.1950   -1.2256 C.ar      1 <0>        -0.0427
     20 C12        -0.3262    3.8071    0.1844 C.2       1 <0>         0.0454
     21 C13        -5.4035   -1.2525   -0.6074 C.ar      1 <0>         0.0424
     22 C14         3.8564    0.1372   -1.1462 C.ar      1 <0>         0.0488
     23 C15         3.8636   -1.7742    0.3316 C.ar      1 <0>        -0.0525
     24 C16         5.1607    0.4427   -0.7574 C.ar      1 <0>        -0.0247
     25 C17         5.1678   -1.4687    0.7202 C.ar      1 <0>        -0.0429
     26 C18         5.8165   -0.3603    0.1757 C.ar      1 <0>         0.0424
     27 H1         -0.0068    0.2667    1.8555 H         1 <0>         0.0558
     28 H2         -1.7336    0.4288    2.1782 H         1 <0>         0.0558
     29 H3         -2.8867    0.8729   -1.4285 H         1 <0>         0.0625
     30 H4          1.1149    2.0893    0.3641 H         1 <0>         0.0825
     31 H5          1.5937   -1.0803   -2.0357 H         1 <0>         0.0775
     32 H6          1.6725   -2.4187   -0.9062 H         1 <0>         0.0775
     33 H7         -2.9881    2.4596    1.2920 H         1 <0>         0.1029
     34 H8         -5.2513   -2.8896    0.7849 H         1 <0>         0.0647
     35 H9         -5.2488    0.4460   -1.9384 H         1 <0>         0.0632
     36 H10         0.2312    4.6397   -0.2197 H         1 <0>         0.0845
     37 H11         3.3697   -2.6390    0.7664 H         1 <0>         0.0622
     38 H12         5.6679    1.3071   -1.1808 H         1 <0>         0.0647
     39 H13         5.6664   -2.1028    1.4489 H         1 <0>         0.0632
@<TRIPOS>BOND
     1    1   12 1
     2    2   22 1
     3    3   21 1
     4    4   26 1
     5    5    7 1
     6    5   16 1
     7    6    9 1
     8    6   14 1
     9    6   17 2
    10    7   10 2
    11    8   17 1
    12    8   20 2
    13    9   10 1
    14    9   27 1
    15    9   28 1
    16   10   11 1
    17   11   12 ar
    18   11   13 ar
    19   12   18 ar
    20   13   19 ar
    21   13   29 1
    22   14   20 1
    23   14   30 1
    24   15   16 1
    25   15   22 ar
    26   15   23 ar
    27   16   31 1
    28   16   32 1
    29   17   33 1
    30   18   21 ar
    31   18   34 1
    32   19   21 ar
    33   19   35 1
    34   20   36 1
    35   22   24 ar
    36   23   25 ar
    37   23   37 1
    38   24   26 ar
    39   24   38 1
    40   25   26 ar
    41   25   39 1
