@<TRIPOS>MOLECULE
DB00955
   74    76     0     0     0
SMALL
USER_CHARGES

@<TRIPOS>ATOM
      1 O1          0.5878   -0.0187    0.4262 O.3       1 <0>        -0.3413
      2 O2         -2.2136   -0.5094    0.1824 O.3       1 <0>        -0.3328
      3 O3          2.4773   -0.7316    1.6218 O.3       1 <0>        -0.3459
      4 O4         -1.4412    2.0913    2.6010 O.3       1 <0>        -0.3865
      5 O5          1.7244   -2.2175   -0.7965 O.3       1 <0>        -0.3851
      6 O6          5.8820   -1.6506    0.5737 O.3       1 <0>        -0.3849
      7 O7         -4.2138   -1.6577    0.6907 O.3       1 <0>        -0.4653
      8 N1          0.0541    3.6329    0.4823 N.3       1 <0>        -0.3110
      9 N2         -2.9392    3.1120    0.2197 N.3       1 <0>        -0.3250
     10 N3          4.6422   -0.0360   -1.2675 N.3       1 <0>        -0.3115
     11 N4         -0.6787   -2.7691    1.1723 N.3       1 <0>        -0.3221
     12 N5         -6.2159   -0.7714   -1.2455 N.3       1 <0>        -0.3237
     13 C1          0.1738    1.2201    1.0068 C.3       1 <0>         0.1053
     14 C2          0.0962    2.2900   -0.0989 C.3       1 <0>         0.0380
     15 C3         -1.1577    0.9907    1.7429 C.3       1 <0>         0.1105
     16 C4         -2.3442    0.7788    0.7879 C.3       1 <0>         0.1061
     17 C5         -2.4482    1.8440   -0.3204 C.3       1 <0>         0.0355
     18 C6         -1.0991    2.0352   -1.0370 C.3       1 <0>        -0.0173
     19 C7          2.0084   -0.1329    0.4132 C.3       1 <0>         0.1870
     20 C8          3.9359   -1.2497   -0.8276 C.3       1 <0>         0.0692
     21 C9          2.4209   -0.9699   -0.8062 C.3       1 <0>         0.1239
     22 C10         4.4515   -1.7095    0.5650 C.3       1 <0>         0.1043
     23 C11         3.9021   -0.7998    1.6729 C.3       1 <0>         0.0808
     24 C12        -2.8137   -1.5224    0.9892 C.3       1 <0>         0.2172
     25 C13         0.5409    4.6177   -0.4693 C.3       1 <0>        -0.0066
     26 C14         4.0780   -3.1728    0.8534 C.3       1 <0>        -0.0323
     27 C15        -2.0873   -2.8613    0.8003 C.3       1 <0>         0.0717
     28 C16        -2.2256   -3.3282   -0.6518 C.3       1 <0>        -0.0102
     29 C17         0.5030    6.0171    0.1211 C.3       1 <0>        -0.0526
     30 C18         4.5779    0.0948   -2.7125 C.3       1 <0>        -0.0154
     31 C19        -4.5106   -2.3446   -0.4730 C.2       1 <0>         0.1108
     32 C20        -3.6245   -3.1058   -1.1388 C.2       1 <0>        -0.0434
     33 C21        -5.9216   -2.1617   -0.9334 C.3       1 <0>         0.0513
     34 H1          0.9094    1.5269    1.7651 H         1 <0>         0.0639
     35 H2          1.0028    2.1976   -0.7113 H         1 <0>         0.0487
     36 H3         -1.0322    0.1121    2.3858 H         1 <0>         0.0646
     37 H4         -3.2867    0.8145    1.3542 H         1 <0>         0.0640
     38 H5         -3.1715    1.4989   -1.0705 H         1 <0>         0.0485
     39 H6         -0.8885    1.1189   -1.6067 H         1 <0>         0.0297
     40 H7         -1.1883    2.8199   -1.7975 H         1 <0>         0.0297
     41 H8          2.4697    0.8594    0.3185 H         1 <0>         0.0937
     42 H9          4.1633   -2.0614   -1.5327 H         1 <0>         0.0517
     43 H10         2.0722   -0.4626   -1.7114 H         1 <0>         0.0661
     44 H11         0.6386    3.6690    1.3171 H         1 <0>         0.1223
     45 H12         4.3261    0.2106    1.6139 H         1 <0>         0.0590
     46 H13         4.1856   -1.1842    2.6596 H         1 <0>         0.0590
     47 H14        -3.8683    2.9798    0.6171 H         1 <0>         0.1185
     48 H15        -3.0414    3.7899   -0.5343 H         1 <0>         0.1185
     49 H16        -2.7543   -1.2600    2.0533 H         1 <0>         0.1072
     50 H17        -2.2549    1.8818    3.0904 H         1 <0>         0.2100
     51 H18         1.5751    4.3953   -0.7593 H         1 <0>         0.0421
     52 H19        -0.0652    4.6261   -1.3807 H         1 <0>         0.0421
     53 H20         4.4280   -3.8292    0.0486 H         1 <0>         0.0258
     54 H21         4.5722   -3.5233    1.7675 H         1 <0>         0.0258
     55 H22         3.0035   -3.3232    0.9835 H         1 <0>         0.0258
     56 H23         5.6223   -0.1024   -0.9927 H         1 <0>         0.1221
     57 H24        -2.5692   -3.6085    1.4458 H         1 <0>         0.0523
     58 H25         1.9695   -2.6972   -1.6059 H         1 <0>         0.2101
     59 H26         6.1875   -1.8780    1.4685 H         1 <0>         0.2103
     60 H27        -1.5377   -2.7874   -1.3139 H         1 <0>         0.0325
     61 H28        -1.9750   -4.3932   -0.7242 H         1 <0>         0.0325
     62 H29        -0.5179    6.3006    0.3986 H         1 <0>         0.0242
     63 H30         1.1333    6.0879    1.0140 H         1 <0>         0.0242
     64 H31         0.8696    6.7464   -0.6085 H         1 <0>         0.0242
     65 H32         3.5594    0.2412   -3.0817 H         1 <0>         0.0388
     66 H33         5.0227   -0.7673   -3.2210 H         1 <0>         0.0388
     67 H34         5.1493    0.9789   -3.0145 H         1 <0>         0.0388
     68 H35        -3.9125   -3.6023   -2.0610 H         1 <0>         0.0606
     69 H36        -0.5982   -2.5050    2.1531 H         1 <0>         0.1187
     70 H37        -0.2375   -3.6831    1.0806 H         1 <0>         0.1187
     71 H38        -6.6067   -2.5129   -0.1531 H         1 <0>         0.0502
     72 H39        -6.1230   -2.7674   -1.8244 H         1 <0>         0.0502
     73 H40        -7.1756   -0.6973   -1.5817 H         1 <0>         0.1186
     74 H41        -6.1767   -0.2137   -0.3927 H         1 <0>         0.1186
@<TRIPOS>BOND
     1    1   13 1
     2    1   19 1
     3    2   16 1
     4    2   24 1
     5    3   19 1
     6    3   23 1
     7    4   15 1
     8    4   50 1
     9    5   21 1
    10    5   58 1
    11    6   22 1
    12    6   59 1
    13    7   24 1
    14    7   31 1
    15    8   14 1
    16    8   25 1
    17    8   44 1
    18    9   17 1
    19    9   47 1
    20    9   48 1
    21   10   20 1
    22   10   30 1
    23   10   56 1
    24   11   27 1
    25   11   69 1
    26   11   70 1
    27   12   33 1
    28   12   73 1
    29   12   74 1
    30   13   14 1
    31   13   15 1
    32   13   34 1
    33   14   18 1
    34   14   35 1
    35   15   16 1
    36   15   36 1
    37   16   17 1
    38   16   37 1
    39   17   18 1
    40   17   38 1
    41   18   39 1
    42   18   40 1
    43   19   21 1
    44   19   41 1
    45   20   21 1
    46   20   22 1
    47   20   42 1
    48   21   43 1
    49   22   23 1
    50   22   26 1
    51   23   45 1
    52   23   46 1
    53   24   27 1
    54   24   49 1
    55   25   29 1
    56   25   51 1
    57   25   52 1
    58   26   53 1
    59   26   54 1
    60   26   55 1
    61   27   28 1
    62   27   57 1
    63   28   32 1
    64   28   60 1
    65   28   61 1
    66   29   62 1
    67   29   63 1
    68   29   64 1
    69   30   65 1
    70   30   66 1
    71   30   67 1
    72   31   32 2
    73   31   33 1
    74   32   68 1
    75   33   71 1
    76   33   72 1
