@<TRIPOS>MOLECULE
DB00275
   59    62     0     0     0
SMALL
USER_CHARGES

@<TRIPOS>ATOM
      1 O1          4.3717   -2.5917    1.2623 O.3       1 <0>        -0.3829
      2 O2          1.9840   -2.5519    2.2252 O.3       1 <0>        -0.4761
      3 O3          1.6022   -0.7116    3.4870 O.2       1 <0>        -0.2434
      4 N1          1.7425    0.7344    0.8211 N.pl3     1 <0>        -0.3177
      5 N2          3.0949    0.1496   -0.8136 N.2       1 <0>        -0.2335
      6 N3         -3.4410   -2.5241   -1.0039 N.2       1 <0>        -0.1331
      7 N4         -3.4021   -0.9217   -2.6035 N.2       1 <0>        -0.1080
      8 N5         -2.5623   -2.7570   -1.9890 N.pl3     1 <0>        -0.1761
      9 N6         -2.5054   -1.8336   -2.9589 N.2       1 <0>        -0.0485
     10 C1          3.8826   -2.0408    0.0027 C.3       1 <0>         0.1043
     11 C2          3.0706   -0.8225    0.1552 C.2       1 <0>         0.1045
     12 C3          2.2762    1.0798   -0.3750 C.cat     1 <0>         0.1109
     13 C4          2.2301   -0.4746    1.1863 C.cat     1 <0>         0.1527
     14 C5          0.7912    1.5378    1.5962 C.3       1 <0>         0.0502
     15 C6          1.9535    2.3465   -1.0634 C.3       1 <0>         0.0054
     16 C7          3.1213   -3.2274   -0.6591 C.3       1 <0>        -0.0306
     17 C8          5.1836   -1.7974   -0.8124 C.3       1 <0>        -0.0306
     18 C9         -0.6224    1.2218    1.2412 C.ar      1 <0>        -0.0277
     19 C10         3.2052    3.0518   -1.6228 C.3       1 <0>        -0.0491
     20 C11         1.9152   -1.1900    2.3817 C.2       1 <0>         0.3554
     21 C12        -1.3078    0.2210    1.9297 C.ar      1 <0>        -0.0563
     22 C13        -1.2590    1.9274    0.2199 C.ar      1 <0>        -0.0563
     23 C14         4.1927    3.4361   -0.5323 C.3       1 <0>        -0.0649
     24 C15        -3.2664    0.6307    0.5760 C.ar      1 <0>        -0.0172
     25 C16        -2.6298   -0.0747    1.5970 C.ar      1 <0>        -0.0537
     26 C17        -2.5811    1.6317   -0.1126 C.ar      1 <0>        -0.0537
     27 C18        -4.6379    0.3248    0.2313 C.ar      1 <0>        -0.0071
     28 C19        -4.9593   -0.6333   -0.7338 C.ar      1 <0>         0.0304
     29 C20        -5.6600    1.0138    0.8891 C.ar      1 <0>        -0.0534
     30 C21        -6.2941   -0.9005   -1.0386 C.ar      1 <0>        -0.0503
     31 C22        -6.9947    0.7465    0.5839 C.ar      1 <0>        -0.0611
     32 C23        -3.9378   -1.3668   -1.4360 C.2       1 <0>         0.2049
     33 C24        -7.3117   -0.2105   -0.3798 C.ar      1 <0>        -0.0611
     34 H1          1.0193    2.5987    1.4582 H         1 <0>         0.0542
     35 H2          0.9781    1.3746    2.6611 H         1 <0>         0.0542
     36 H3          1.4422    3.0766   -0.4359 H         1 <0>         0.0343
     37 H4          1.2793    2.1248   -1.8997 H         1 <0>         0.0343
     38 H5          2.2284   -3.5007   -0.0886 H         1 <0>         0.0261
     39 H6          2.8009   -2.9685   -1.6742 H         1 <0>         0.0261
     40 H7          3.7518   -4.1227   -0.7059 H         1 <0>         0.0261
     41 H8          5.8069   -2.6989   -0.8393 H         1 <0>         0.0261
     42 H9          4.9644   -1.4961   -1.8425 H         1 <0>         0.0261
     43 H10         5.7892   -1.0100   -0.3478 H         1 <0>         0.0261
     44 H11         2.8902    3.9561   -2.1568 H         1 <0>         0.0267
     45 H12         3.7074    2.4078   -2.3547 H         1 <0>         0.0267
     46 H13         4.8936   -1.8973    1.7004 H         1 <0>         0.2107
     47 H14        -0.8384   -0.3319    2.7361 H         1 <0>         0.0621
     48 H15        -0.7559    2.7233   -0.3181 H         1 <0>         0.0621
     49 H16         3.7145    4.0629    0.2273 H         1 <0>         0.0230
     50 H17         4.6159    2.5566   -0.0376 H         1 <0>         0.0230
     51 H18         5.0236    4.0038   -0.9634 H         1 <0>         0.0230
     52 H19        -3.1504   -0.8562    2.1455 H         1 <0>         0.0624
     53 H20        -3.0639    2.1935   -0.9088 H         1 <0>         0.0624
     54 H21         1.7642   -3.0228    3.0571 H         1 <0>         0.2955
     55 H22        -5.4339    1.7637    1.6439 H         1 <0>         0.0624
     56 H23        -6.5602   -1.6430   -1.7875 H         1 <0>         0.0625
     57 H24        -7.7872    1.2835    1.0969 H         1 <0>         0.0618
     58 H25        -8.3509   -0.4183   -0.6171 H         1 <0>         0.0618
     59 H26        -1.9738   -3.5831   -1.9995 H         1 <0>         0.2143
@<TRIPOS>BOND
     1    1   10 1
     2    1   46 1
     3    2   20 1
     4    2   54 1
     5    3   20 2
     6    4   12 1
     7    4   13 1
     8    4   14 1
     9    5   11 2
    10    5   12 1
    11    6    8 1
    12    6   32 2
    13    7    9 2
    14    7   32 1
    15    8    9 1
    16    8   59 1
    17   10   11 1
    18   10   16 1
    19   10   17 1
    20   11   13 1
    21   12   15 1
    22   13   20 1
    23   14   18 1
    24   14   34 1
    25   14   35 1
    26   15   19 1
    27   15   36 1
    28   15   37 1
    29   16   38 1
    30   16   39 1
    31   16   40 1
    32   17   41 1
    33   17   42 1
    34   17   43 1
    35   18   21 ar
    36   18   22 ar
    37   19   23 1
    38   19   44 1
    39   19   45 1
    40   21   25 ar
    41   21   47 1
    42   22   26 ar
    43   22   48 1
    44   23   49 1
    45   23   50 1
    46   23   51 1
    47   24   25 ar
    48   24   26 ar
    49   24   27 1
    50   25   52 1
    51   26   53 1
    52   27   28 ar
    53   27   29 ar
    54   28   30 ar
    55   28   32 1
    56   29   31 ar
    57   29   55 1
    58   30   33 ar
    59   30   56 1
    60   31   33 ar
    61   31   57 1
    62   33   58 1
