@<TRIPOS>MOLECULE
DB00882
   57    59     0     0     0
SMALL
USER_CHARGES

@<TRIPOS>ATOM
      1 Cl1        -2.2390    2.6584    0.8004 Cl        1 <0>        -0.0823
      2 O1          2.6407   -0.5160   -1.3686 O.3       1 <0>        -0.4907
      3 N1          5.8511    0.2017    0.2937 N.3       1 <0>        -0.2996
      4 C1          4.8849    0.0830   -0.7977 C.3       1 <0>         0.0331
      5 C2          6.0607   -1.0963    0.9342 C.3       1 <0>        -0.0038
      6 C3          7.1183    0.7377   -0.2016 C.3       1 <0>        -0.0038
      7 C4          3.5516   -0.4330   -0.2805 C.3       1 <0>         0.1022
      8 C5          7.0157   -0.9803    2.1101 C.3       1 <0>        -0.0524
      9 C6          6.9195    2.0872   -0.8709 C.3       1 <0>        -0.0524
     10 C7         -1.3848   -0.0293   -0.4820 C.ar      1 <0>        -0.0157
     11 C8          1.3116   -0.3556   -1.0755 C.ar      1 <0>         0.1206
     12 C9         -2.7952    0.1413   -0.1704 C.2       1 <0>         0.0081
     13 C10        -0.8943    0.3534   -1.7303 C.ar      1 <0>        -0.0505
     14 C11        -0.5226   -0.5760    0.4686 C.ar      1 <0>        -0.0505
     15 C12         0.4585    0.1897   -2.0281 C.ar      1 <0>        -0.0194
     16 C13         0.8302   -0.7397    0.1708 C.ar      1 <0>        -0.0194
     17 C14        -3.7880   -0.9421   -0.4601 C.ar      1 <0>        -0.0159
     18 C15        -3.2549    1.2999    0.4001 C.2       1 <0>         0.0563
     19 C16        -4.6715    1.5213    0.7365 C.ar      1 <0>        -0.0061
     20 C17        -4.0350   -1.8803    0.5125 C.ar      1 <0>        -0.0540
     21 C18        -4.4084   -0.9505   -1.6859 C.ar      1 <0>        -0.0540
     22 C19        -4.9595   -2.8895    0.2428 C.ar      1 <0>        -0.0612
     23 C20        -5.3329   -1.9596   -1.9555 C.ar      1 <0>        -0.0612
     24 C21        -5.1366    1.1572    1.9903 C.ar      1 <0>        -0.0532
     25 C22        -5.5130    2.0895   -0.2066 C.ar      1 <0>        -0.0532
     26 C23        -5.6084   -2.9291   -0.9911 C.ar      1 <0>        -0.0617
     27 C24        -6.4783    1.3664    2.3091 C.ar      1 <0>        -0.0612
     28 C25        -6.8548    2.2989    0.1122 C.ar      1 <0>        -0.0612
     29 C26        -7.3374    1.9373    1.3701 C.ar      1 <0>        -0.0617
     30 H1          5.2516   -0.5708   -1.6006 H         1 <0>         0.0460
     31 H2          4.6717    1.0521   -1.2621 H         1 <0>         0.0460
     32 H3          5.1361   -1.4754    1.3773 H         1 <0>         0.0424
     33 H4          6.4275   -1.8515    0.2278 H         1 <0>         0.0424
     34 H5          7.8106    0.9180    0.6271 H         1 <0>         0.0424
     35 H6          7.6100    0.0494   -0.9007 H         1 <0>         0.0424
     36 H7          3.1945    0.2536    0.4988 H         1 <0>         0.0709
     37 H8          3.6259   -1.4468    0.1206 H         1 <0>         0.0709
     38 H9          8.0563   -0.8594    1.7938 H         1 <0>         0.0242
     39 H10         6.7460   -0.1507    2.7728 H         1 <0>         0.0242
     40 H11         6.9775   -1.8990    2.7065 H         1 <0>         0.0242
     41 H12         6.4746    2.0001   -1.8670 H         1 <0>         0.0242
     42 H13         6.3056    2.7588   -0.2611 H         1 <0>         0.0242
     43 H14         7.8924    2.5731   -1.0088 H         1 <0>         0.0242
     44 H15        -1.5523    0.7824   -2.4822 H         1 <0>         0.0625
     45 H16        -0.8899   -0.8841    1.4447 H         1 <0>         0.0625
     46 H17         0.8368    0.4898   -3.0011 H         1 <0>         0.0654
     47 H18         1.4606   -1.1948    0.9285 H         1 <0>         0.0654
     48 H19        -3.5348   -1.8582    1.4763 H         1 <0>         0.0624
     49 H20        -4.2006   -0.2005   -2.4432 H         1 <0>         0.0624
     50 H21        -5.1740   -3.6441    0.9938 H         1 <0>         0.0618
     51 H22        -5.8385   -1.9905   -2.9163 H         1 <0>         0.0618
     52 H23        -4.4777    0.7126    2.7316 H         1 <0>         0.0624
     53 H24        -5.1497    2.3767   -1.1898 H         1 <0>         0.0624
     54 H25        -6.3284   -3.7146   -1.2011 H         1 <0>         0.0618
     55 H26        -6.8542    1.0848    3.2883 H         1 <0>         0.0618
     56 H27        -7.5238    2.7433   -0.6188 H         1 <0>         0.0618
     57 H28        -8.3820    2.1002    1.6183 H         1 <0>         0.0618
@<TRIPOS>BOND
     1    1   18 1
     2    2    7 1
     3    2   11 1
     4    3    4 1
     5    3    5 1
     6    3    6 1
     7    4    7 1
     8    4   30 1
     9    4   31 1
    10    5    8 1
    11    5   32 1
    12    5   33 1
    13    6    9 1
    14    6   34 1
    15    6   35 1
    16    7   36 1
    17    7   37 1
    18    8   38 1
    19    8   39 1
    20    8   40 1
    21    9   41 1
    22    9   42 1
    23    9   43 1
    24   10   12 1
    25   10   13 ar
    26   10   14 ar
    27   11   15 ar
    28   11   16 ar
    29   12   17 1
    30   12   18 2
    31   13   15 ar
    32   13   44 1
    33   14   16 ar
    34   14   45 1
    35   15   46 1
    36   16   47 1
    37   17   20 ar
    38   17   21 ar
    39   18   19 1
    40   19   24 ar
    41   19   25 ar
    42   20   22 ar
    43   20   48 1
    44   21   23 ar
    45   21   49 1
    46   22   26 ar
    47   22   50 1
    48   23   26 ar
    49   23   51 1
    50   24   27 ar
    51   24   52 1
    52   25   28 ar
    53   25   53 1
    54   26   54 1
    55   27   29 ar
    56   27   55 1
    57   28   29 ar
    58   28   56 1
    59   29   57 1
