@<TRIPOS>MOLECULE
DB00420
   40    42     0     0     0
SMALL
USER_CHARGES

@<TRIPOS>ATOM
      1 S1          1.8512   -2.1587    1.4638 S.3       1 <0>        -0.0857
      2 N1          0.7300   -0.2240   -0.6956 N.pl3     1 <0>        -0.2983
      3 N2         -2.3134    1.1023    0.5384 N.3       1 <0>        -0.3083
      4 C1          0.0176    0.8694   -1.3692 C.3       1 <0>         0.0185
      5 C2         -0.2204    2.0331   -0.4075 C.3       1 <0>        -0.0240
      6 C3         -1.0069    1.6662    0.8548 C.3       1 <0>        -0.0003
      7 C4          0.0542   -1.4642   -0.5708 C.ar      1 <0>         0.0479
      8 C5          2.0636    0.0227   -0.2819 C.ar      1 <0>         0.0479
      9 C6          0.4829   -2.4346    0.3564 C.ar      1 <0>         0.0341
     10 C7          2.6911   -0.8002    0.6743 C.ar      1 <0>         0.0341
     11 C8         -1.0483   -1.8005   -1.3866 C.ar      1 <0>        -0.0393
     12 C9          2.8339    1.0725   -0.8282 C.ar      1 <0>        -0.0393
     13 C10        -0.1857   -3.6665    0.4701 C.ar      1 <0>        -0.0462
     14 C11         4.0166   -0.5559    1.0753 C.ar      1 <0>        -0.0462
     15 C12        -3.1415    2.0831   -0.1660 C.3       1 <0>        -0.0130
     16 C13        -2.9886    0.6495    1.7559 C.3       1 <0>        -0.0130
     17 C14        -1.7061   -3.0283   -1.2730 C.ar      1 <0>        -0.0599
     18 C15         4.1526    1.3079   -0.4297 C.ar      1 <0>        -0.0599
     19 C16        -1.2762   -3.9612   -0.3415 C.ar      1 <0>        -0.0606
     20 C17         4.7435    0.4948    0.5253 C.ar      1 <0>        -0.0606
     21 H1          0.5635    1.2027   -2.2599 H         1 <0>         0.0468
     22 H2         -0.9651    0.6127   -1.7630 H         1 <0>         0.0468
     23 H3         -0.7112    2.8490   -0.9511 H         1 <0>         0.0293
     24 H4          0.7288    2.4693   -0.0776 H         1 <0>         0.0293
     25 H5         -1.1080    2.5622    1.4821 H         1 <0>         0.0427
     26 H6         -0.4211    0.9483    1.4418 H         1 <0>         0.0427
     27 H7         -1.4110   -1.1617   -2.1844 H         1 <0>         0.0636
     28 H8          2.4442    1.7352   -1.5951 H         1 <0>         0.0636
     29 H9          0.1380   -4.4120    1.1937 H         1 <0>         0.0629
     30 H10         4.4981   -1.1839    1.8221 H         1 <0>         0.0629
     31 H11        -2.7674    2.2905   -1.1729 H         1 <0>         0.0391
     32 H12        -3.2281    3.0276    0.3836 H         1 <0>         0.0391
     33 H13        -4.1542    1.6885   -0.3129 H         1 <0>         0.0391
     34 H14        -3.9490    0.1815    1.5126 H         1 <0>         0.0391
     35 H15        -3.1715    1.4713    2.4577 H         1 <0>         0.0391
     36 H16        -2.3903   -0.1142    2.2656 H         1 <0>         0.0391
     37 H17        -2.5449   -3.2564   -1.9242 H         1 <0>         0.0618
     38 H18         4.7147    2.1253   -0.8719 H         1 <0>         0.0618
     39 H19        -1.7830   -4.9169   -0.2498 H         1 <0>         0.0618
     40 H20         5.7673    0.6739    0.8391 H         1 <0>         0.0618
@<TRIPOS>BOND
     1    1    9 1
     2    1   10 1
     3    2    4 1
     4    2    7 1
     5    2    8 1
     6    3    6 1
     7    3   15 1
     8    3   16 1
     9    4    5 1
    10    4   21 1
    11    4   22 1
    12    5    6 1
    13    5   23 1
    14    5   24 1
    15    6   25 1
    16    6   26 1
    17    7    9 ar
    18    7   11 ar
    19    8   10 ar
    20    8   12 ar
    21    9   13 ar
    22   10   14 ar
    23   11   17 ar
    24   11   27 1
    25   12   18 ar
    26   12   28 1
    27   13   19 ar
    28   13   29 1
    29   14   20 ar
    30   14   30 1
    31   15   31 1
    32   15   32 1
    33   15   33 1
    34   16   34 1
    35   16   35 1
    36   16   36 1
    37   17   19 ar
    38   17   37 1
    39   18   20 ar
    40   18   38 1
    41   19   39 1
    42   20   40 1
