@<TRIPOS>MOLECULE
DB00304
   53    56     0     0     0
SMALL
USER_CHARGES

@<TRIPOS>ATOM
      1 O1          4.5678    0.4607   -0.3376 O.3       1 <0>        -0.3760
      2 C1          2.1239    0.2001   -0.0327 C.3       1 <0>         0.0173
      3 C2          1.2473   -1.0740   -0.1165 C.3       1 <0>        -0.0280
      4 C3         -0.1335   -0.9051    0.5441 C.3       1 <0>        -0.0302
      5 C4         -0.8892    0.2649   -0.1753 C.3       1 <0>        -0.0105
      6 C5          3.4342   -0.3169   -0.6977 C.3       1 <0>         0.1322
      7 C6          2.1793   -2.1783    0.3735 C.3       1 <0>        -0.0458
      8 C7          1.3753    1.3488   -0.7434 C.3       1 <0>        -0.0222
      9 C8          3.5800   -1.7471   -0.1125 C.3       1 <0>        -0.0118
     10 C9         -2.3732    0.4116    0.3018 C.3       1 <0>        -0.0131
     11 C10        -0.9356   -2.2102    0.4826 C.3       1 <0>        -0.0457
     12 C11        -0.0037    1.5229   -0.1154 C.2       1 <0>        -0.0720
     13 C12         2.4297    0.6447    1.4315 C.3       1 <0>        -0.0461
     14 C13        -2.3073   -2.0304    1.1147 C.3       1 <0>        -0.0312
     15 C14        -3.0740   -0.9376    0.4241 C.2       1 <0>        -0.0698
     16 C15        -3.1533    1.3565   -0.6514 C.3       1 <0>        -0.0457
     17 C16         3.2576    1.9011    1.4311 C.3       1 <0>        -0.0646
     18 C17         3.3664   -0.3810   -2.1708 C.1       1 <0>        -0.0704
     19 C18        -4.6573    1.2979   -0.4100 C.3       1 <0>        -0.0491
     20 C19        -4.3208   -1.1605   -0.0298 C.2       1 <0>        -0.0845
     21 C20        -0.3154    2.6828    0.4856 C.2       1 <0>        -0.0991
     22 C21        -5.1860   -0.1105   -0.6527 C.3       1 <0>        -0.0345
     23 C22         3.3112   -0.4337   -3.3687 C.1       1 <0>        -0.1163
     24 H1          1.0483   -1.2962   -1.1774 H         1 <0>         0.0310
     25 H2         -0.0093   -0.6520    1.6047 H         1 <0>         0.0310
     26 H3         -0.9478   -0.0066   -1.2417 H         1 <0>         0.0354
     27 H4          1.9036   -3.1548   -0.0377 H         1 <0>         0.0269
     28 H5          2.1634   -2.2642    1.4657 H         1 <0>         0.0269
     29 H6          1.1985    1.0906   -1.7962 H         1 <0>         0.0317
     30 H7          1.9247    2.2902   -0.7951 H         1 <0>         0.0317
     31 H8         -2.3807    0.8483    1.3100 H         1 <0>         0.0351
     32 H9          4.2832   -1.7661    0.7291 H         1 <0>         0.0303
     33 H10         3.9626   -2.4611   -0.8519 H         1 <0>         0.0303
     34 H11        -0.4042   -3.0051    1.0186 H         1 <0>         0.0271
     35 H12        -1.0425   -2.5424   -0.5582 H         1 <0>         0.0271
     36 H13         2.9525   -0.1321    2.0001 H         1 <0>         0.0269
     37 H14         1.5075    0.8377    1.9886 H         1 <0>         0.0269
     38 H15        -2.1990   -1.7735    2.1758 H         1 <0>         0.0310
     39 H16        -2.8451   -2.9853    1.0764 H         1 <0>         0.0310
     40 H17        -2.9518    1.0874   -1.6969 H         1 <0>         0.0271
     41 H18        -2.8265    2.3930   -0.5310 H         1 <0>         0.0271
     42 H19         4.2870    1.6793    1.7378 H         1 <0>         0.0230
     43 H20         3.3107    2.4933    0.5199 H         1 <0>         0.0230
     44 H21         2.8773    2.5758    2.2086 H         1 <0>         0.0230
     45 H22         4.5369    1.2945   -0.8375 H         1 <0>         0.2114
     46 H23        -5.1731    2.0035   -1.0711 H         1 <0>         0.0268
     47 H24        -4.8756    1.6079    0.6200 H         1 <0>         0.0268
     48 H25        -4.7639   -2.1480    0.0708 H         1 <0>         0.0572
     49 H26        -1.2541    2.8426    1.0005 H         1 <0>         0.0534
     50 H27         0.3875    3.5099    0.5015 H         1 <0>         0.0534
     51 H28        -5.2537   -0.3069   -1.7293 H         1 <0>         0.0307
     52 H29        -6.2013   -0.1860   -0.2472 H         1 <0>         0.0307
     53 H30         3.2614   -0.4803   -4.4313 H         1 <0>         0.1229
@<TRIPOS>BOND
     1    1    6 1
     2    1   45 1
     3    2    3 1
     4    2    6 1
     5    2    8 1
     6    2   13 1
     7    3    4 1
     8    3    7 1
     9    3   24 1
    10    4    5 1
    11    4   11 1
    12    4   25 1
    13    5   10 1
    14    5   12 1
    15    5   26 1
    16    6    9 1
    17    6   18 1
    18    7    9 1
    19    7   27 1
    20    7   28 1
    21    8   12 1
    22    8   29 1
    23    8   30 1
    24    9   32 1
    25    9   33 1
    26   10   15 1
    27   10   16 1
    28   10   31 1
    29   11   14 1
    30   11   34 1
    31   11   35 1
    32   12   21 2
    33   13   17 1
    34   13   36 1
    35   13   37 1
    36   14   15 1
    37   14   38 1
    38   14   39 1
    39   15   20 2
    40   16   19 1
    41   16   40 1
    42   16   41 1
    43   17   42 1
    44   17   43 1
    45   17   44 1
    46   18   23 3
    47   19   22 1
    48   19   46 1
    49   19   47 1
    50   20   22 1
    51   20   48 1
    52   21   49 1
    53   21   50 1
    54   22   51 1
    55   22   52 1
    56   23   53 1
