@<TRIPOS>MOLECULE
DB00396
   53    56     0     0     0
SMALL
USER_CHARGES

@<TRIPOS>ATOM
      1 O1          5.2328    0.0908    0.9392 O.2       1 <0>        -0.2974
      2 O2         -6.2396    0.2360   -1.4835 O.2       1 <0>        -0.2927
      3 C1          1.2174   -1.0206   -0.3882 C.3       1 <0>        -0.0319
      4 C2          2.0686    0.1658    0.1124 C.3       1 <0>        -0.0195
      5 C3         -0.2091   -1.0102    0.1712 C.3       1 <0>        -0.0338
      6 C4         -0.9105    0.3146   -0.2644 C.3       1 <0>        -0.0288
      7 C5         -2.4063    0.4059    0.2285 C.3       1 <0>        -0.0072
      8 C6          3.4089   -0.1810   -0.5727 C.3       1 <0>         0.0229
      9 C7          1.4073    1.4581   -0.3846 C.3       1 <0>        -0.0464
     10 C8         -0.0554    1.5640    0.0834 C.3       1 <0>        -0.0486
     11 C9          2.1081   -2.2301   -0.1254 C.3       1 <0>        -0.0488
     12 C10        -1.0136   -2.2188   -0.3236 C.3       1 <0>        -0.0459
     13 C11         3.5266   -1.7124   -0.4243 C.3       1 <0>        -0.0427
     14 C12        -3.1432   -0.8918   -0.1280 C.2       1 <0>        -0.0601
     15 C13         2.2287    0.2177    1.6544 C.3       1 <0>        -0.0587
     16 C14        -2.4404   -2.1856    0.2090 C.3       1 <0>        -0.0305
     17 C15        -3.0824    1.6141   -0.4829 C.3       1 <0>        -0.0367
     18 C16        -2.4998    0.6090    1.7576 C.3       1 <0>        -0.0556
     19 C17         4.5954    0.5396   -0.0123 C.2       1 <0>         0.1339
     20 C18        -4.6005    1.6010   -0.3969 C.3       1 <0>         0.0107
     21 C19        -4.3628   -0.9329   -0.6903 C.2       1 <0>        -0.0194
     22 C20        -5.1447    0.3020   -0.9285 C.2       1 <0>         0.1561
     23 C21         4.9717    1.8389   -0.6717 C.3       1 <0>        -0.0058
     24 H1          1.1259   -0.9435   -1.4851 H         1 <0>         0.0309
     25 H2         -0.1682   -1.0663    1.2642 H         1 <0>         0.0307
     26 H3         -0.9489    0.2840   -1.3659 H         1 <0>         0.0312
     27 H4          3.3561    0.0412   -1.6475 H         1 <0>         0.0383
     28 H5          1.4282    1.4966   -1.4814 H         1 <0>         0.0271
     29 H6          1.9566    2.3378   -0.0316 H         1 <0>         0.0271
     30 H7         -0.0711    1.7465    1.1625 H         1 <0>         0.0268
     31 H8         -0.4879    2.4550   -0.3849 H         1 <0>         0.0268
     32 H9          1.8523   -3.0787   -0.7680 H         1 <0>         0.0268
     33 H10         2.0322   -2.5666    0.9145 H         1 <0>         0.0268
     34 H11        -0.5379   -3.1500    0.0052 H         1 <0>         0.0271
     35 H12        -1.0290   -2.2396   -1.4211 H         1 <0>         0.0271
     36 H13         4.2129   -2.0346    0.3656 H         1 <0>         0.0272
     37 H14         3.8994   -2.1461   -1.3599 H         1 <0>         0.0272
     38 H15         2.7515   -0.6580    2.0516 H         1 <0>         0.0235
     39 H16         2.8007    1.1031    1.9552 H         1 <0>         0.0235
     40 H17         1.2706    0.2760    2.1774 H         1 <0>         0.0235
     41 H18        -2.4278   -2.3097    1.2989 H         1 <0>         0.0310
     42 H19        -2.9838   -3.0503   -0.1914 H         1 <0>         0.0310
     43 H20        -2.8037    1.6150   -1.5461 H         1 <0>         0.0278
     44 H21        -2.7201    2.5617   -0.0668 H         1 <0>         0.0278
     45 H22        -1.9220   -0.1372    2.3117 H         1 <0>         0.0238
     46 H23        -2.1328    1.5965    2.0566 H         1 <0>         0.0238
     47 H24        -3.5349    0.5342    2.1110 H         1 <0>         0.0238
     48 H25        -5.0013    2.4201   -1.0041 H         1 <0>         0.0345
     49 H26        -4.9518    1.7357    0.6309 H         1 <0>         0.0345
     50 H27        -4.8473   -1.8708   -0.9401 H         1 <0>         0.0652
     51 H28         5.1302    1.6794   -1.7411 H         1 <0>         0.0306
     52 H29         4.1910    2.5839   -0.5120 H         1 <0>         0.0306
     53 H30         5.9040    2.2107   -0.2367 H         1 <0>         0.0306
@<TRIPOS>BOND
     1    1   19 2
     2    2   22 2
     3    3    4 1
     4    3    5 1
     5    3   11 1
     6    3   24 1
     7    4    8 1
     8    4    9 1
     9    4   15 1
    10    5    6 1
    11    5   12 1
    12    5   25 1
    13    6    7 1
    14    6   10 1
    15    6   26 1
    16    7   14 1
    17    7   17 1
    18    7   18 1
    19    8   13 1
    20    8   19 1
    21    8   27 1
    22    9   10 1
    23    9   28 1
    24    9   29 1
    25   10   30 1
    26   10   31 1
    27   11   13 1
    28   11   32 1
    29   11   33 1
    30   12   16 1
    31   12   34 1
    32   12   35 1
    33   13   36 1
    34   13   37 1
    35   14   16 1
    36   14   21 2
    37   15   38 1
    38   15   39 1
    39   15   40 1
    40   16   41 1
    41   16   42 1
    42   17   20 1
    43   17   43 1
    44   17   44 1
    45   18   45 1
    46   18   46 1
    47   18   47 1
    48   19   23 1
    49   20   22 1
    50   20   48 1
    51   20   49 1
    52   21   22 1
    53   21   50 1
    54   23   51 1
    55   23   52 1
    56   23   53 1
