@<TRIPOS>MOLECULE
DB00996
   29    29     0     0     0
SMALL
USER_CHARGES

@<TRIPOS>ATOM
      1 O1          2.0301    2.6739    0.1622 O.co2     1 <0>        -0.5498
      2 O2          3.6825    1.1182   -0.0906 O.co2     1 <0>        -0.5498
      3 N1          1.6579   -1.7359    0.6252 N.4       1 <0>         0.2189
      4 C1          0.3574    0.1653   -0.1839 C.3       1 <0>         0.0157
      5 C2         -0.4892   -0.7787   -1.0680 C.3       1 <0>        -0.0422
      6 C3         -0.4809    1.3997    0.2194 C.3       1 <0>        -0.0422
      7 C4         -1.8435   -1.1337   -0.4546 C.3       1 <0>        -0.0524
      8 C5         -1.8353    1.0410    0.8306 C.3       1 <0>        -0.0524
      9 C6          0.8652   -0.5764    1.0676 C.3       1 <0>        -0.0293
     10 C7         -2.6352    0.1133   -0.0769 C.3       1 <0>        -0.0530
     11 C8          1.5854    0.6349   -0.9862 C.3       1 <0>        -0.0027
     12 C9          2.5114    1.5761   -0.2310 C.2       1 <0>         0.0425
     13 H1          0.0399   -1.6915   -1.3573 H         1 <0>         0.0273
     14 H2         -0.6911   -0.2659   -2.0199 H         1 <0>         0.0273
     15 H3         -0.6521    2.0423   -0.6540 H         1 <0>         0.0273
     16 H4          0.0269    2.0009    0.9785 H         1 <0>         0.0273
     17 H5         -1.7035   -1.7670    0.4285 H         1 <0>         0.0265
     18 H6         -2.4230   -1.7251   -1.1731 H         1 <0>         0.0265
     19 H7         -2.4086    1.9580    1.0107 H         1 <0>         0.0265
     20 H8         -1.6935    0.5659    1.8083 H         1 <0>         0.0265
     21 H9          0.0582   -0.9721    1.6899 H         1 <0>         0.0819
     22 H10         1.5140    0.0373    1.6999 H         1 <0>         0.0819
     23 H11        -2.9186    0.6537   -0.9885 H         1 <0>         0.0265
     24 H12        -3.5665   -0.1780    0.4218 H         1 <0>         0.0265
     25 H13         1.2426    1.1996   -1.8660 H         1 <0>         0.0332
     26 H14         2.1501   -0.2019   -1.4135 H         1 <0>         0.0332
     27 H15         2.0244   -2.2325    1.4492 H         1 <0>         0.1994
     28 H16         2.4826   -1.4874    0.0659 H         1 <0>         0.1994
     29 H17         1.1123   -2.4340    0.1060 H         1 <0>         0.1994
@<TRIPOS>BOND
     1    1   12 2
     2    2   12 1
     3    3    9 1
     4    3   27 1
     5    3   28 1
     6    3   29 1
     7    4    5 1
     8    4    6 1
     9    4    9 1
    10    4   11 1
    11    5    7 1
    12    5   13 1
    13    5   14 1
    14    6    8 1
    15    6   15 1
    16    6   16 1
    17    7   10 1
    18    7   17 1
    19    7   18 1
    20    8   10 1
    21    8   19 1
    22    8   20 1
    23    9   21 1
    24    9   22 1
    25   10   23 1
    26   10   24 1
    27   11   12 1
    28   11   25 1
    29   11   26 1
