@<TRIPOS>MOLECULE
DB00573
   32    33     0     0     0
SMALL
USER_CHARGES

@<TRIPOS>ATOM
      1 O1          1.4438    1.8375   -0.8195 O.3       1 <0>        -0.4560
      2 O2         -2.6337   -3.0380    0.8883 O.3       1 <0>        -0.4802
      3 O3         -0.9562   -1.6761    1.5718 O.2       1 <0>        -0.2503
      4 C1         -2.5914   -0.7991   -0.0166 C.3       1 <0>         0.0785
      5 C2         -1.8583    0.4991    0.0111 C.ar      1 <0>        -0.0305
      6 C3         -0.5338    0.5614   -0.4218 C.ar      1 <0>        -0.0154
      7 C4         -2.7338   -1.4074   -1.4267 C.3       1 <0>        -0.0482
      8 C5         -2.4972    1.6512    0.4695 C.ar      1 <0>        -0.0576
      9 C6          0.1517    1.7761   -0.3965 C.ar      1 <0>         0.1287
     10 C7         -1.9630   -1.8557    0.8989 C.2       1 <0>         0.3119
     11 C8         -1.8119    2.8658    0.4948 C.ar      1 <0>        -0.0580
     12 C9         -0.4874    2.9282    0.0617 C.ar      1 <0>        -0.0193
     13 C10         2.3105    0.8476   -0.3873 C.ar      1 <0>         0.1284
     14 C11         2.2976    0.4754    0.9447 C.ar      1 <0>        -0.0193
     15 C12         3.1668    0.2572   -1.2990 C.ar      1 <0>        -0.0193
     16 C13         3.1710   -0.5212    1.3800 C.ar      1 <0>        -0.0583
     17 C14         4.0402   -0.7393   -0.8636 C.ar      1 <0>        -0.0583
     18 C15         4.0423   -1.1285    0.4760 C.ar      1 <0>        -0.0615
     19 H1         -3.6046   -0.6394    0.3775 H         1 <0>         0.0459
     20 H2         -0.0511   -0.3361   -0.8006 H         1 <0>         0.0657
     21 H3         -3.1401   -0.6696   -2.1274 H         1 <0>         0.0241
     22 H4         -1.7699   -1.7513   -1.8184 H         1 <0>         0.0241
     23 H5         -3.4111   -2.2683   -1.4213 H         1 <0>         0.0241
     24 H6         -3.5288    1.6206    0.8103 H         1 <0>         0.0621
     25 H7         -2.3092    3.7629    0.8518 H         1 <0>         0.0619
     26 H8          0.0414    3.8771    0.0841 H         1 <0>         0.0654
     27 H9          1.6455    0.9489    1.6729 H         1 <0>         0.0654
     28 H10         3.1658    0.5591   -2.3420 H         1 <0>         0.0654
     29 H11         3.1763   -0.8207    2.4240 H         1 <0>         0.0619
     30 H12         4.7188   -1.2122   -1.5675 H         1 <0>         0.0619
     31 H13        -2.2132   -3.7015    1.4759 H         1 <0>         0.2951
     32 H14         4.7232   -1.9038    0.8151 H         1 <0>         0.0618
@<TRIPOS>BOND
     1    1    9 1
     2    1   13 1
     3    2   10 1
     4    2   31 1
     5    3   10 2
     6    4    5 1
     7    4    7 1
     8    4   10 1
     9    4   19 1
    10    5    6 ar
    11    5    8 ar
    12    6    9 ar
    13    6   20 1
    14    7   21 1
    15    7   22 1
    16    7   23 1
    17    8   11 ar
    18    8   24 1
    19    9   12 ar
    20   11   12 ar
    21   11   25 1
    22   12   26 1
    23   13   14 ar
    24   13   15 ar
    25   14   16 ar
    26   14   27 1
    27   15   17 ar
    28   15   28 1
    29   16   18 ar
    30   16   29 1
    31   17   18 ar
    32   17   30 1
    33   18   32 1
