@<TRIPOS>MOLECULE
DB00793
   18    18     0     0     0
SMALL
USER_CHARGES

@<TRIPOS>ATOM
      1 I1          6.3405   -0.9644   -0.1013 I         1 <0>         0.0181
      2 Cl1         0.0737   -2.8100    0.3694 Cl        1 <0>        -0.0797
      3 Cl2        -3.2177    2.4761   -0.0771 Cl        1 <0>        -0.0819
      4 Cl3        -4.6289   -0.4019   -0.5283 Cl        1 <0>        -0.0820
      5 O1          1.1016   -0.0087    0.7349 O.3       1 <0>        -0.4780
      6 C1         -0.2260   -0.1076    0.4412 C.ar      1 <0>         0.1416
      7 C2         -0.8337   -1.3479    0.2466 C.ar      1 <0>         0.0840
      8 C3         -0.9787    1.0620    0.3370 C.ar      1 <0>         0.0013
      9 C4         -2.3394    0.9912    0.0384 C.ar      1 <0>         0.0628
     10 C5         -2.1944   -1.4186   -0.0522 C.ar      1 <0>        -0.0201
     11 C6         -2.9473   -0.2491   -0.1563 C.ar      1 <0>         0.0609
     12 C7          1.9137    0.7257   -0.1783 C.3       1 <0>         0.1507
     13 C8          3.2793    0.2030   -0.1539 C.1       1 <0>        -0.0504
     14 C9          4.4009   -0.2244   -0.1350 C.1       1 <0>        -0.0266
     15 H1         -0.5061    2.0282    0.4986 H         1 <0>         0.0670
     16 H2         -2.6667   -2.3871   -0.2038 H         1 <0>         0.0648
     17 H3          1.5162    0.6534   -1.1986 H         1 <0>         0.0837
     18 H4          1.9128    1.7802    0.1189 H         1 <0>         0.0837
@<TRIPOS>BOND
     1    1   14 1
     2    2    7 1
     3    3    9 1
     4    4   11 1
     5    5    6 1
     6    5   12 1
     7    6    7 ar
     8    6    8 ar
     9    7   10 ar
    10    8    9 ar
    11    8   15 1
    12    9   11 ar
    13   10   11 ar
    14   10   16 1
    15   12   13 1
    16   12   17 1
    17   12   18 1
    18   13   14 3
