@<TRIPOS>MOLECULE
DB00412
   44    46     0     0     0
SMALL
USER_CHARGES

@<TRIPOS>ATOM
      1 S1          5.4721   -1.0078   -1.0307 S.3       1 <0>        -0.0542
      2 O1         -1.0357   -1.7925    0.6640 O.3       1 <0>        -0.4904
      3 O2          6.2562    1.9751    1.2892 O.2       1 <0>        -0.2741
      4 O3          7.9356   -0.8696   -1.9378 O.2       1 <0>        -0.2625
      5 N1         -3.6573   -1.1081   -0.2097 N.pl3     1 <0>        -0.3150
      6 N2          7.2796    0.6425   -0.2997 N.am      1 <0>        -0.2463
      7 N3         -4.4159    0.5920   -1.6964 N.ar      1 <0>        -0.2403
      8 C1          5.0094    0.1684    0.2775 C.3       1 <0>         0.0945
      9 C2          3.8047    0.9937   -0.1385 C.3       1 <0>        -0.0069
     10 C3          2.5116    0.2497    0.0756 C.ar      1 <0>        -0.0456
     11 C4          6.2257    1.0394    0.4971 C.2       1 <0>         0.2336
     12 C5         -3.3895   -1.5981    1.1223 C.3       1 <0>         0.0474
     13 C6          1.8510    0.3661    1.2899 C.ar      1 <0>        -0.0551
     14 C7          2.0023   -0.5401   -0.9446 C.ar      1 <0>        -0.0551
     15 C8         -1.9863   -1.2022    1.5494 C.3       1 <0>         0.1052
     16 C9          0.1312   -1.1195    0.4699 C.ar      1 <0>         0.1206
     17 C10         0.6540   -0.3223    1.4880 C.ar      1 <0>        -0.0197
     18 C11         0.8054   -1.2285   -0.7464 C.ar      1 <0>        -0.0197
     19 C12         7.1089   -0.4033   -1.1687 C.2       1 <0>         0.2789
     20 C13        -4.1930    0.1692   -0.4240 C.ar      1 <0>         0.1211
     21 C14        -3.3438   -1.9719   -1.3488 C.3       1 <0>         0.0021
     22 C15        -4.4736    0.9512    0.6936 C.ar      1 <0>        -0.0217
     23 C16        -5.0056    2.2208    0.4974 C.ar      1 <0>        -0.0571
     24 C17        -4.9337    1.8315   -1.8480 C.ar      1 <0>         0.0297
     25 C18        -5.2430    2.6769   -0.7946 C.ar      1 <0>        -0.0435
     26 H1          4.8345   -0.3893    1.2045 H         1 <0>         0.0515
     27 H2          3.8795    1.3381   -1.1794 H         1 <0>         0.0329
     28 H3          3.7614    1.9218    0.4484 H         1 <0>         0.0329
     29 H4         -3.4377   -2.6957    1.1067 H         1 <0>         0.0497
     30 H5         -4.1446   -1.3187    1.8637 H         1 <0>         0.0497
     31 H6          2.2547    0.9772    2.0922 H         1 <0>         0.0621
     32 H7          2.5068   -0.6233   -1.9026 H         1 <0>         0.0621
     33 H8         -1.7979   -1.5760    2.5624 H         1 <0>         0.0712
     34 H9         -1.9122   -0.1077    1.5546 H         1 <0>         0.0712
     35 H10         0.1777   -0.2343    2.4600 H         1 <0>         0.0654
     36 H11         0.4007   -1.8454   -1.5442 H         1 <0>         0.0654
     37 H12         8.1688    1.1293   -0.2511 H         1 <0>         0.1583
     38 H13        -2.5956   -1.4986   -1.9937 H         1 <0>         0.0428
     39 H14        -4.2458   -2.1698   -1.9379 H         1 <0>         0.0428
     40 H15        -2.9410   -2.9399   -1.0322 H         1 <0>         0.0428
     41 H16        -4.2932    0.6596    1.7200 H         1 <0>         0.0652
     42 H17        -5.2309    2.8565    1.3486 H         1 <0>         0.0619
     43 H18        -5.0995    2.1400   -2.8749 H         1 <0>         0.0830
     44 H19        -5.6560    3.6634   -0.9715 H         1 <0>         0.0633
@<TRIPOS>BOND
     1    1    8 1
     2    1   19 1
     3    2   15 1
     4    2   16 1
     5    3   11 2
     6    4   19 2
     7    5   12 1
     8    5   20 1
     9    5   21 1
    10    6   11 am
    11    6   19 am
    12    6   37 1
    13    7   20 ar
    14    7   24 ar
    15    8    9 1
    16    8   11 1
    17    8   26 1
    18    9   10 1
    19    9   27 1
    20    9   28 1
    21   10   13 ar
    22   10   14 ar
    23   12   15 1
    24   12   29 1
    25   12   30 1
    26   13   17 ar
    27   13   31 1
    28   14   18 ar
    29   14   32 1
    30   15   33 1
    31   15   34 1
    32   16   17 ar
    33   16   18 ar
    34   17   35 1
    35   18   36 1
    36   20   22 ar
    37   21   38 1
    38   21   39 1
    39   21   40 1
    40   22   23 ar
    41   22   41 1
    42   23   25 ar
    43   23   42 1
    44   24   25 ar
    45   24   43 1
    46   25   44 1
