@<TRIPOS>MOLECULE
DB00896
   61    64     0     0     0
SMALL
USER_CHARGES

@<TRIPOS>ATOM
      1 O1         -0.9122    2.1815    1.3919 O.3       1 <0>        -0.3914
      2 O2          4.5608   -0.2820    1.1896 O.2       1 <0>        -0.2968
      3 O3         -6.4662    0.4341   -2.5083 O.2       1 <0>        -0.2879
      4 C1          1.2404    0.1691    0.3680 C.3       1 <0>        -0.0143
      5 C2          0.3156   -1.0096   -0.0065 C.3       1 <0>        -0.0312
      6 C3          2.6127   -0.3651   -0.1903 C.3       1 <0>         0.0344
      7 C4         -1.1360   -0.8381    0.4729 C.3       1 <0>        -0.0311
      8 C5         -1.7351    0.4618   -0.1708 C.3       1 <0>         0.0007
      9 C6          2.5822   -1.8769    0.2395 C.3       1 <0>        -0.0310
     10 C7          1.0904   -2.2441    0.4461 C.3       1 <0>        -0.0459
     11 C8          0.6638    1.4374   -0.2976 C.3       1 <0>        -0.0200
     12 C9         -0.8165    1.7032    0.0586 C.3       1 <0>         0.0599
     13 C10        -3.2627    0.6552    0.1849 C.3       1 <0>         0.0131
     14 C11        -1.9742   -2.0764    0.1045 C.3       1 <0>        -0.0458
     15 C12         1.3431    0.3801    1.9095 C.3       1 <0>        -0.0583
     16 C13         2.8107   -0.1599   -1.7035 C.3       1 <0>        -0.0521
     17 C14         3.7898    0.3290    0.4510 C.2       1 <0>         0.1397
     18 C15        -3.4479   -1.9020    0.4495 C.3       1 <0>        -0.0302
     19 C16        -3.9859   -0.6448   -0.1838 C.2       1 <0>        -0.0559
     20 C17         3.2796   -2.8580   -0.6991 C.3       1 <0>        -0.0615
     21 C18        -3.5287    0.9461    1.6793 C.3       1 <0>        -0.0520
     22 C19        -3.8317    1.8380   -0.5854 C.2       1 <0>        -0.0701
     23 C20         3.9533    1.8029    0.1286 C.3       1 <0>         0.0036
     24 C21        -5.0101   -0.7097   -1.0490 C.2       1 <0>        -0.0149
     25 C22        -4.8496    1.7800   -1.4497 C.2       1 <0>        -0.0180
     26 C23        -5.5203    0.4975   -1.7305 C.2       1 <0>         0.1787
     27 C24         5.2895    2.1146   -0.5206 C.3       1 <0>        -0.0586
     28 H1          0.2604   -1.0740   -1.1040 H         1 <0>         0.0309
     29 H2         -1.1588   -0.7561    1.5634 H         1 <0>         0.0308
     30 H3         -1.6994    0.2920   -1.2609 H         1 <0>         0.0340
     31 H4          3.0579   -2.0165    1.2188 H         1 <0>         0.0308
     32 H5          0.9004   -2.4568    1.5049 H         1 <0>         0.0271
     33 H6          0.7950   -3.1316   -0.1238 H         1 <0>         0.0271
     34 H7          0.7164    1.3597   -1.3885 H         1 <0>         0.0296
     35 H8          1.2318    2.3213    0.0047 H         1 <0>         0.0296
     36 H9         -1.1512    2.5251   -0.5833 H         1 <0>         0.0596
     37 H10        -1.5934   -2.9584    0.6328 H         1 <0>         0.0271
     38 H11        -1.8756   -2.2855   -0.9691 H         1 <0>         0.0271
     39 H12         1.7712    1.3613    2.1426 H         1 <0>         0.0235
     40 H13         0.3940    0.3043    2.4362 H         1 <0>         0.0235
     41 H14         1.9851   -0.3649    2.3910 H         1 <0>         0.0235
     42 H15         2.0852   -0.7358   -2.2869 H         1 <0>         0.0239
     43 H16         2.7186    0.8758   -2.0385 H         1 <0>         0.0239
     44 H17         3.8083   -0.4901   -2.0190 H         1 <0>         0.0239
     45 H18        -3.5797   -1.8584    1.5366 H         1 <0>         0.0310
     46 H19        -3.9982   -2.7883    0.1109 H         1 <0>         0.0310
     47 H20         2.7936   -2.9056   -1.6785 H         1 <0>         0.0233
     48 H21         4.3295   -2.5831   -0.8422 H         1 <0>         0.0233
     49 H22         3.2575   -3.8685   -0.2762 H         1 <0>         0.0233
     50 H23        -3.2688    1.9723    1.9606 H         1 <0>         0.0241
     51 H24        -4.5957    0.8338    1.9153 H         1 <0>         0.0241
     52 H25        -2.9869    0.2690    2.3462 H         1 <0>         0.0241
     53 H26        -3.3944    2.8167   -0.4001 H         1 <0>         0.0582
     54 H27        -1.0898    1.4406    1.9891 H         1 <0>         0.2098
     55 H28         3.1767    2.1871   -0.5258 H         1 <0>         0.0339
     56 H29         3.8624    2.3513    1.0732 H         1 <0>         0.0339
     57 H30        -5.4921   -1.6500   -1.2948 H         1 <0>         0.0655
     58 H31        -5.2130    2.6680   -1.9537 H         1 <0>         0.0653
     59 H32         5.3814    3.1878   -0.7132 H         1 <0>         0.0234
     60 H33         5.3971    1.5829   -1.4715 H         1 <0>         0.0234
     61 H34         6.1198    1.8106    0.1252 H         1 <0>         0.0234
@<TRIPOS>BOND
     1    1   12 1
     2    1   54 1
     3    2   17 2
     4    3   26 2
     5    4    5 1
     6    4    6 1
     7    4   11 1
     8    4   15 1
     9    5    7 1
    10    5   10 1
    11    5   28 1
    12    6    9 1
    13    6   16 1
    14    6   17 1
    15    7    8 1
    16    7   14 1
    17    7   29 1
    18    8   12 1
    19    8   13 1
    20    8   30 1
    21    9   10 1
    22    9   20 1
    23    9   31 1
    24   10   32 1
    25   10   33 1
    26   11   12 1
    27   11   34 1
    28   11   35 1
    29   12   36 1
    30   13   19 1
    31   13   21 1
    32   13   22 1
    33   14   18 1
    34   14   37 1
    35   14   38 1
    36   15   39 1
    37   15   40 1
    38   15   41 1
    39   16   42 1
    40   16   43 1
    41   16   44 1
    42   17   23 1
    43   18   19 1
    44   18   45 1
    45   18   46 1
    46   19   24 2
    47   20   47 1
    48   20   48 1
    49   20   49 1
    50   21   50 1
    51   21   51 1
    52   21   52 1
    53   22   25 2
    54   22   53 1
    55   23   27 1
    56   23   55 1
    57   23   56 1
    58   24   26 1
    59   24   57 1
    60   25   26 1
    61   25   58 1
    62   27   59 1
    63   27   60 1
    64   27   61 1
