@<TRIPOS>MOLECULE
DB00380
   35    36     0     0     0
SMALL
USER_CHARGES

@<TRIPOS>ATOM
      1 O1          5.1431    1.3378   -0.4328 O.2       1 <0>        -0.2740
      2 O2          3.6339   -2.9159    0.4604 O.2       1 <0>        -0.2740
      3 O3         -3.8811    1.6306    2.0071 O.2       1 <0>        -0.2740
      4 O4         -5.0872   -1.1468   -1.4570 O.2       1 <0>        -0.2740
      5 N1          1.8520    0.0530   -0.2631 N.3       1 <0>        -0.2815
      6 N2         -1.8932   -0.1182   -0.3385 N.3       1 <0>        -0.2840
      7 N3          4.3892   -0.7964   -0.0198 N.am      1 <0>        -0.2543
      8 N4         -4.4849    0.2689    0.2537 N.am      1 <0>        -0.2543
      9 C1          0.4900    0.5674   -0.1150 C.3       1 <0>         0.0213
     10 C2         -0.5014   -0.5484   -0.4783 C.3       1 <0>         0.0153
     11 C3          2.8232    1.0839    0.1042 C.3       1 <0>         0.0767
     12 C4          2.0354   -1.1361    0.5696 C.3       1 <0>         0.0767
     13 C5          0.3401    1.8098   -0.9929 C.3       1 <0>        -0.0483
     14 C6         -2.1672    0.2606    1.0481 C.3       1 <0>         0.0765
     15 C7         -2.7967   -1.1894   -0.7593 C.3       1 <0>         0.0765
     16 C8          4.2182    0.5717   -0.1636 C.2       1 <0>         0.2333
     17 C9          3.4068   -1.7149    0.3163 C.2       1 <0>         0.2333
     18 C10        -3.5714    0.8067    1.1469 C.2       1 <0>         0.2333
     19 C11        -4.2198   -0.6864   -0.7151 C.2       1 <0>         0.2333
     20 H1          0.3645    0.8683    0.9308 H         1 <0>         0.0473
     21 H2         -0.4010   -1.4308    0.1580 H         1 <0>         0.0442
     22 H3         -0.3187   -0.8636   -1.5146 H         1 <0>         0.0442
     23 H4          2.7519    1.3780    1.1583 H         1 <0>         0.0522
     24 H5          2.7449    1.9779   -0.5207 H         1 <0>         0.0522
     25 H6          1.3804   -1.9646    0.2932 H         1 <0>         0.0522
     26 H7          1.9275   -0.9293    1.6408 H         1 <0>         0.0522
     27 H8          0.7265    1.6454   -2.0055 H         1 <0>         0.0245
     28 H9         -0.7127    2.0944   -1.0980 H         1 <0>         0.0245
     29 H10         0.8299    2.6898   -0.5636 H         1 <0>         0.0245
     30 H11        -1.5362    1.0849    1.3895 H         1 <0>         0.0522
     31 H12        -2.0642   -0.5791    1.7458 H         1 <0>         0.0522
     32 H13        -2.7192   -2.0812   -0.1257 H         1 <0>         0.0522
     33 H14        -2.5860   -1.4751   -1.7967 H         1 <0>         0.0522
     34 H15         5.3243   -1.1613   -0.1770 H         1 <0>         0.1576
     35 H16        -5.4407    0.6085    0.3141 H         1 <0>         0.1576
@<TRIPOS>BOND
     1    1   16 2
     2    2   17 2
     3    3   18 2
     4    4   19 2
     5    5    9 1
     6    5   11 1
     7    5   12 1
     8    6   10 1
     9    6   14 1
    10    6   15 1
    11    7   16 am
    12    7   17 am
    13    7   34 1
    14    8   18 am
    15    8   19 am
    16    8   35 1
    17    9   10 1
    18    9   13 1
    19    9   20 1
    20   10   21 1
    21   10   22 1
    22   11   16 1
    23   11   23 1
    24   11   24 1
    25   12   17 1
    26   12   25 1
    27   12   26 1
    28   13   27 1
    29   13   28 1
    30   13   29 1
    31   14   18 1
    32   14   30 1
    33   14   31 1
    34   15   19 1
    35   15   32 1
    36   15   33 1
