@<TRIPOS>MOLECULE
DB00842
   31    33     0     0     0
SMALL
USER_CHARGES

@<TRIPOS>ATOM
      1 Cl1         0.6385    4.1599   -1.8374 Cl        1 <0>        -0.0835
      2 O1          1.7698   -3.6626   -0.7777 O.3       1 <0>        -0.3636
      3 O2          2.7321   -2.8757    1.5358 O.2       1 <0>        -0.2705
      4 N1          2.5531   -0.6492    1.0616 N.am      1 <0>        -0.2812
      5 N2          0.1616   -1.9271   -0.2524 N.2       1 <0>        -0.2428
      6 C1          0.7826    0.4603   -0.2900 C.ar      1 <0>         0.0232
      7 C2         -0.1719   -0.6837   -0.1886 C.2       1 <0>         0.0780
      8 C3          2.0120    0.4648    0.3878 C.ar      1 <0>         0.0428
      9 C4         -1.6170   -0.3923    0.0375 C.ar      1 <0>         0.0007
     10 C5          1.5504   -2.2855   -0.4793 C.3       1 <0>         0.2246
     11 C6          0.3745    1.6047   -0.9948 C.ar      1 <0>        -0.0324
     12 C7          2.7609    1.6501    0.4360 C.ar      1 <0>        -0.0385
     13 C8          2.3004   -1.9812    0.8061 C.2       1 <0>         0.2686
     14 C9          1.1544    2.7604   -0.9788 C.ar      1 <0>         0.0417
     15 C10         2.3381    2.7888   -0.2496 C.ar      1 <0>        -0.0416
     16 C11        -1.9846    0.7457    0.7441 C.ar      1 <0>        -0.0526
     17 C12        -2.5783   -1.2618   -0.4619 C.ar      1 <0>        -0.0526
     18 C13        -3.3361    1.0186    0.9555 C.ar      1 <0>        -0.0611
     19 C14        -3.9299   -0.9888   -0.2506 C.ar      1 <0>        -0.0611
     20 C15        -4.3086    0.1514    0.4580 C.ar      1 <0>        -0.0617
     21 H1          1.9784   -1.7243   -1.3183 H         1 <0>         0.0952
     22 H2          3.2543   -0.4521    1.7712 H         1 <0>         0.1550
     23 H3         -0.5554    1.6027   -1.5602 H         1 <0>         0.0639
     24 H4          3.7011    1.6880    0.9821 H         1 <0>         0.0637
     25 H5          2.9493    3.6869   -0.2128 H         1 <0>         0.0633
     26 H6         -1.2572    1.4221    1.1829 H         1 <0>         0.0624
     27 H7         -2.3078   -2.1509   -1.0247 H         1 <0>         0.0624
     28 H8         -3.6312    1.9012    1.5153 H         1 <0>         0.0618
     29 H9         -4.6875   -1.6629   -0.6392 H         1 <0>         0.0618
     30 H10        -5.3609    0.3631    0.6239 H         1 <0>         0.0618
     31 H11         2.7148   -3.7705   -0.9814 H         1 <0>         0.2125
@<TRIPOS>BOND
     1    1   14 1
     2    2   10 1
     3    2   31 1
     4    3   13 2
     5    4    8 1
     6    4   13 am
     7    4   22 1
     8    5    7 2
     9    5   10 1
    10    6    7 1
    11    6    8 ar
    12    6   11 ar
    13    7    9 1
    14    8   12 ar
    15    9   16 ar
    16    9   17 ar
    17   10   13 1
    18   10   21 1
    19   11   14 ar
    20   11   23 1
    21   12   15 ar
    22   12   24 1
    23   14   15 ar
    24   15   25 1
    25   16   18 ar
    26   16   26 1
    27   17   19 ar
    28   17   27 1
    29   18   20 ar
    30   18   28 1
    31   19   20 ar
    32   19   29 1
    33   20   30 1
