@<TRIPOS>MOLECULE
DB00949
   31    31     0     0     0
SMALL
USER_CHARGES

@<TRIPOS>ATOM
      1 O1          2.4470   -0.9236   -0.2532 O.3       1 <0>        -0.4498
      2 O2         -2.3908   -0.9011   -0.4911 O.3       1 <0>        -0.4498
      3 O3          3.6979   -2.2835    1.1199 O.2       1 <0>        -0.2267
      4 O4         -3.7997   -2.2441    0.7380 O.2       1 <0>        -0.2267
      5 N1          4.6961   -0.8868   -0.4097 N.am      1 <0>        -0.2950
      6 N2         -4.6104   -0.8292   -0.8831 N.am      1 <0>        -0.2950
      7 C1          0.0169   -0.7611   -0.2981 C.3       1 <0>         0.0526
      8 C2         -0.0006    0.7451   -0.0666 C.ar      1 <0>        -0.0378
      9 C3          1.2508   -1.4220    0.3365 C.3       1 <0>         0.1039
     10 C4         -1.2711   -1.4189    0.2191 C.3       1 <0>         0.1039
     11 C5         -0.6245    1.2378    1.0600 C.ar      1 <0>        -0.0581
     12 C6          0.6076    1.5672   -0.9918 C.ar      1 <0>        -0.0581
     13 C7         -0.6409    2.6165    1.2716 C.ar      1 <0>        -0.0615
     14 C8          0.5913    2.9458   -0.7803 C.ar      1 <0>        -0.0615
     15 C9         -0.0331    3.4705    0.3515 C.ar      1 <0>        -0.0617
     16 C10         3.6164   -1.4407    0.2327 C.2       1 <0>         0.3977
     17 C11        -3.6127   -1.4010   -0.1329 C.2       1 <0>         0.3977
     18 H1          0.0540   -0.9169   -1.3859 H         1 <0>         0.0415
     19 H2          1.2072   -2.5064    0.1778 H         1 <0>         0.0705
     20 H3          1.2732   -1.2270    1.4163 H         1 <0>         0.0705
     21 H4         -1.2138   -2.4947    0.0049 H         1 <0>         0.0705
     22 H5         -1.4104   -1.3242    1.3010 H         1 <0>         0.0705
     23 H6         -1.0816    0.6150    1.8186 H         1 <0>         0.0620
     24 H7          1.0963    1.1681   -1.8754 H         1 <0>         0.0620
     25 H8         -1.1204    3.0253    2.1564 H         1 <0>         0.0618
     26 H9          1.0652    3.6108   -1.4964 H         1 <0>         0.0618
     27 H10        -0.0443    4.5437    0.5169 H         1 <0>         0.0618
     28 H11         4.5772   -0.1912   -1.1385 H         1 <0>         0.1482
     29 H12         5.6457   -1.1555   -0.1750 H         1 <0>         0.1482
     30 H13        -4.4052   -0.1342   -1.5929 H         1 <0>         0.1482
     31 H14        -5.5834   -1.0837   -0.7503 H         1 <0>         0.1482
@<TRIPOS>BOND
     1    1    9 1
     2    1   16 1
     3    2   10 1
     4    2   17 1
     5    3   16 2
     6    4   17 2
     7    5   16 am
     8    5   28 1
     9    5   29 1
    10    6   17 am
    11    6   30 1
    12    6   31 1
    13    7    8 1
    14    7    9 1
    15    7   10 1
    16    7   18 1
    17    8   11 ar
    18    8   12 ar
    19    9   19 1
    20    9   20 1
    21   10   21 1
    22   10   22 1
    23   11   13 ar
    24   11   23 1
    25   12   14 ar
    26   12   24 1
    27   13   15 ar
    28   13   25 1
    29   14   15 ar
    30   14   26 1
    31   15   27 1
