@<TRIPOS>MOLECULE
DB00142
   19    18     0     0     0
SMALL
USER_CHARGES

@<TRIPOS>ATOM
      1 O1         -1.3872    1.6601   -1.4903 O.co2     1 <0>        -0.5442
      2 O2         -0.4826    2.5198    0.4258 O.co2     1 <0>        -0.5442
      3 O3          3.1991    0.5846    0.2382 O.3       1 <0>        -0.4806
      4 O4          2.0033   -0.9038    1.4634 O.2       1 <0>        -0.2510
      5 N1         -2.3150   -0.3445    0.4974 N.4       1 <0>         0.2249
      6 C1         -0.9313    0.2045    0.3243 C.3       1 <0>         0.0165
      7 C2         -0.1473   -0.8165   -0.5109 C.3       1 <0>         0.0057
      8 C3          1.2929   -0.3815   -0.8052 C.3       1 <0>         0.0502
      9 C4         -0.9376    1.5997   -0.3112 C.2       1 <0>         0.0894
     10 C5          2.1638   -0.2744    0.4268 C.2       1 <0>         0.3049
     11 H1         -0.5200    0.2599    1.3384 H         1 <0>         0.0915
     12 H2         -0.1348   -1.7824    0.0106 H         1 <0>         0.0329
     13 H3         -0.6541   -0.9856   -1.4700 H         1 <0>         0.0329
     14 H4          1.2998    0.5789   -1.3314 H         1 <0>         0.0379
     15 H5          1.7633   -1.1195   -1.4652 H         1 <0>         0.0379
     16 H6         -2.7980   -0.4484   -0.4052 H         1 <0>         0.2001
     17 H7         -2.8886    0.2764    1.0835 H         1 <0>         0.2001
     18 H8         -2.3023   -1.2673    0.9522 H         1 <0>         0.2001
     19 H9          3.7767    0.6400    1.0291 H         1 <0>         0.2951
@<TRIPOS>BOND
     1    1    9 2
     2    2    9 1
     3    3   10 1
     4    3   19 1
     5    4   10 2
     6    5    6 1
     7    5   16 1
     8    5   17 1
     9    5   18 1
    10    6    7 1
    11    6    9 1
    12    6   11 1
    13    7    8 1
    14    7   12 1
    15    7   13 1
    16    8   10 1
    17    8   14 1
    18    8   15 1
