@<TRIPOS>MOLECULE
DB00819
   19    19     0     0     0
SMALL
USER_CHARGES

@<TRIPOS>ATOM
      1 S1         -3.5508    0.0198   -0.6224 S.o2      1 <0>         0.0815
      2 S2         -0.7326    0.9551   -0.5176 S.3       1 <0>        -0.0105
      3 O1         -3.6216    1.2035   -1.4822 O.2       1 <0>        -0.1512
      4 O2         -4.1578   -1.2361   -1.0646 O.2       1 <0>        -0.1512
      5 O3          2.9428   -1.7259    0.3845 O.2       1 <0>        -0.2757
      6 N1          1.7699    0.2461   -0.1224 N.am      1 <0>        -0.2635
      7 N2         -1.3437   -1.4977   -0.0974 N.2       1 <0>        -0.1190
      8 N3         -4.2682    0.4467    0.8872 N.pl3     1 <0>        -0.2015
      9 N4          0.0326   -1.4280    0.0305 N.2       1 <0>        -0.1239
     10 C1         -1.8671   -0.3244   -0.3823 C.2       1 <0>         0.2556
     11 C2          0.5038   -0.1975   -0.1637 C.2       1 <0>         0.1893
     12 C3          2.9532   -0.5265    0.1495 C.2       1 <0>         0.2156
     13 C4          4.2066    0.2968    0.1122 C.3       1 <0>         0.0125
     14 H1          1.8941    1.2384   -0.3062 H         1 <0>         0.1568
     15 H2         -4.3424   -0.3038    1.5860 H         1 <0>         0.1443
     16 H3         -3.9678    1.3394    1.2993 H         1 <0>         0.1443
     17 H4          4.3634    0.6806   -0.8995 H         1 <0>         0.0323
     18 H5          5.0626   -0.3201    0.3982 H         1 <0>         0.0323
     19 H6          4.1227    1.1337    0.8109 H         1 <0>         0.0323
@<TRIPOS>BOND
     1    1    3 2
     2    1    4 2
     3    1    8 1
     4    1   10 1
     5    2   10 1
     6    2   11 1
     7    5   12 2
     8    6   11 1
     9    6   12 am
    10    6   14 1
    11    7    9 1
    12    7   10 2
    13    8   15 1
    14    8   16 1
    15    9   11 2
    16   12   13 1
    17   13   17 1
    18   13   18 1
    19   13   19 1
