@<TRIPOS>MOLECULE
DB00808
   40    42     0     0     0
SMALL
USER_CHARGES

@<TRIPOS>ATOM
      1 Cl1         6.3463    0.7950   -0.2184 Cl        1 <0>        -0.0815
      2 S1          4.3493   -1.5221   -1.2688 S.o2      1 <0>         0.0574
      3 O1          0.1044    1.8143    1.8276 O.2       1 <0>        -0.2687
      4 O2          3.2452   -2.0332   -2.0651 O.2       1 <0>        -0.1532
      5 O3          5.6076   -1.1720   -1.9078 O.2       1 <0>        -0.1532
      6 N1         -1.7096    0.6095    0.1249 N.pl3     1 <0>        -0.2474
      7 N2         -0.3559    0.5360   -0.0541 N.am      1 <0>        -0.2297
      8 N3          4.6625   -2.6096    0.0096 N.pl3     1 <0>        -0.2035
      9 C1         -2.5206    1.4421   -0.7704 C.3       1 <0>         0.0437
     10 C2         -3.9662    0.8815   -0.6901 C.3       1 <0>        -0.0058
     11 C3         -3.7248   -0.4968   -0.1624 C.ar      1 <0>        -0.0230
     12 C4         -2.4073   -0.5997    0.3000 C.ar      1 <0>         0.0511
     13 C5         -2.4523    2.9049   -0.3569 C.3       1 <0>        -0.0445
     14 C6         -4.6124   -1.5554   -0.0771 C.ar      1 <0>        -0.0567
     15 C7         -1.9532   -1.7866    0.8558 C.ar      1 <0>        -0.0389
     16 C8         -4.1567   -2.7517    0.4778 C.ar      1 <0>        -0.0614
     17 C9         -2.8369   -2.8666    0.9404 C.ar      1 <0>        -0.0599
     18 C10         0.4848    1.1724    0.8513 C.2       1 <0>         0.2603
     19 C11         1.9420    1.0661    0.5782 C.ar      1 <0>         0.0401
     20 C12         2.4107   -0.0261   -0.1214 C.ar      1 <0>        -0.0218
     21 C13         3.7782   -0.1250   -0.3775 C.ar      1 <0>         0.1239
     22 C14         2.7782    2.0638    1.0337 C.ar      1 <0>        -0.0481
     23 C15         4.6458    0.8705    0.0719 C.ar      1 <0>         0.0673
     24 C16         4.1458    1.9649    0.7775 C.ar      1 <0>        -0.0408
     25 H1         -2.1580    1.3350   -1.8026 H         1 <0>         0.0518
     26 H2         -4.4385    0.8701   -1.6770 H         1 <0>         0.0332
     27 H3         -4.5897    1.4450    0.0124 H         1 <0>         0.0332
     28 H4         -3.1040    3.5168   -0.9891 H         1 <0>         0.0248
     29 H5         -2.7606    3.0404    0.6857 H         1 <0>         0.0248
     30 H6         -1.4317    3.2906   -0.4511 H         1 <0>         0.0248
     31 H7         -0.0574    0.0670   -0.9024 H         1 <0>         0.1733
     32 H8         -5.6335   -1.4631   -0.4301 H         1 <0>         0.0621
     33 H9         -0.9381   -1.8881    1.2257 H         1 <0>         0.0637
     34 H10        -4.8292   -3.6015    0.5559 H         1 <0>         0.0618
     35 H11        -2.4999   -3.8050    1.3726 H         1 <0>         0.0618
     36 H12         1.7488   -0.8250   -0.4382 H         1 <0>         0.0645
     37 H13         2.4042    2.9247    1.5796 H         1 <0>         0.0625
     38 H14         4.8079    2.7501    1.1338 H         1 <0>         0.0633
     39 H15         4.0304   -3.4118    0.1194 H         1 <0>         0.1442
     40 H16         5.6441   -2.8213    0.2267 H         1 <0>         0.1442
@<TRIPOS>BOND
     1    1   23 1
     2    2    4 2
     3    2    5 2
     4    2    8 1
     5    2   21 1
     6    3   18 2
     7    6    7 1
     8    6    9 1
     9    6   12 1
    10    7   18 am
    11    7   31 1
    12    8   39 1
    13    8   40 1
    14    9   10 1
    15    9   13 1
    16    9   25 1
    17   10   11 1
    18   10   26 1
    19   10   27 1
    20   11   12 ar
    21   11   14 ar
    22   12   15 ar
    23   13   28 1
    24   13   29 1
    25   13   30 1
    26   14   16 ar
    27   14   32 1
    28   15   17 ar
    29   15   33 1
    30   16   17 ar
    31   16   34 1
    32   17   35 1
    33   18   19 1
    34   19   20 ar
    35   19   22 ar
    36   20   21 ar
    37   20   36 1
    38   21   23 ar
    39   22   24 ar
    40   22   37 1
    41   23   24 ar
    42   24   38 1
