@<TRIPOS>MOLECULE
DB01265
   31    32     0     0     0
SMALL
USER_CHARGES

@<TRIPOS>ATOM
      1 O1         -1.2391    0.0452   -1.1585 O.3       1 <0>        -0.3483
      2 O2         -3.6028    1.6130   -0.0589 O.3       1 <0>        -0.3890
      3 O3         -1.7712   -2.7054   -0.9220 O.3       1 <0>        -0.3924
      4 O4          1.1533    3.3088   -0.3580 O.2       1 <0>        -0.2464
      5 O5          4.6934    0.4192    0.1598 O.2       1 <0>        -0.2674
      6 N1          0.6979    1.0204   -0.2775 N.am      1 <0>        -0.2737
      7 N2          2.9096    1.8564   -0.1008 N.am      1 <0>        -0.2747
      8 C1         -2.7933    0.6062    0.5440 C.3       1 <0>         0.0876
      9 C2         -0.7208    1.1655   -0.4286 C.3       1 <0>         0.1422
     10 C3         -1.4577    1.2152    0.8999 C.3       1 <0>         0.0214
     11 C4         -2.4228   -0.4424   -0.4965 C.3       1 <0>         0.1100
     12 C5         -2.0915   -1.7959    0.1180 C.3       1 <0>         0.0729
     13 C6          1.2234   -0.2596   -0.1542 C.2       1 <0>         0.0199
     14 C7          1.5493    2.1459   -0.2540 C.2       1 <0>         0.3313
     15 C8          2.5256   -0.5331   -0.0077 C.2       1 <0>         0.0302
     16 C9          3.4861    0.6016    0.0270 C.2       1 <0>         0.2568
     17 C10         3.0701   -1.9193    0.1235 C.3       1 <0>        -0.0332
     18 H1         -3.3380    0.2094    1.4046 H         1 <0>         0.0621
     19 H2         -0.9344    2.0664   -1.0160 H         1 <0>         0.0840
     20 H3         -1.5220    2.2376    1.2853 H         1 <0>         0.0335
     21 H4         -0.9567    0.5975    1.6548 H         1 <0>         0.0335
     22 H5         -3.1949   -0.5567   -1.2656 H         1 <0>         0.0646
     23 H6         -2.9607   -2.1884    0.6561 H         1 <0>         0.0584
     24 H7         -1.2499   -1.7504    0.8135 H         1 <0>         0.0584
     25 H8          0.5299   -1.0868   -0.1786 H         1 <0>         0.0816
     26 H9         -3.1961    1.8822   -0.8996 H         1 <0>         0.2099
     27 H10         3.5419    2.6518   -0.0808 H         1 <0>         0.1734
     28 H11        -1.5755   -3.5611   -0.5037 H         1 <0>         0.2095
     29 H12         3.5948   -2.0351    1.0775 H         1 <0>         0.0280
     30 H13         3.7730   -2.1323   -0.6884 H         1 <0>         0.0280
     31 H14         2.2792   -2.6757    0.0853 H         1 <0>         0.0280
@<TRIPOS>BOND
     1    1    9 1
     2    1   11 1
     3    2    8 1
     4    2   26 1
     5    3   12 1
     6    3   28 1
     7    4   14 2
     8    5   16 2
     9    6    9 1
    10    6   13 1
    11    6   14 am
    12    7   14 am
    13    7   16 am
    14    7   27 1
    15    8   10 1
    16    8   11 1
    17    8   18 1
    18    9   10 1
    19    9   19 1
    20   10   20 1
    21   10   21 1
    22   11   12 1
    23   11   22 1
    24   12   23 1
    25   12   24 1
    26   13   15 2
    27   13   25 1
    28   15   16 1
    29   15   17 1
    30   17   29 1
    31   17   30 1
    32   17   31 1
