@<TRIPOS>MOLECULE
DB01143
   27    26     0     0     0
SMALL
USER_CHARGES

@<TRIPOS>ATOM
      1 S1         -2.5174    0.8973   -0.4336 S.3       1 <0>        -0.1378
      2 P1         -4.5183    1.3516    0.1973 P.3       1 <0>        -0.0917
      3 O1         -4.5911    2.8539   -0.0417 O.3       1 <0>        -0.5899
      4 O2         -4.5169    0.9220    1.6581 O.3       1 <0>        -0.5899
      5 O3         -5.3676    0.4998   -0.7364 O.2       1 <0>        -0.6500
      6 N1          0.0855   -0.7348    0.2360 N.4       1 <0>         0.2277
      7 N2          2.9145    1.3548   -0.8352 N.4       1 <0>         0.2187
      8 C1          1.4608   -1.2192   -0.0265 C.3       1 <0>        -0.0287
      9 C2          2.4740   -0.4410    0.8067 C.3       1 <0>         0.0275
     10 C3         -0.9683   -1.4008   -0.5787 C.3       1 <0>        -0.0242
     11 C4          2.5205    1.0635    0.5627 C.3       1 <0>        -0.0305
     12 C5         -2.3446   -0.8947   -0.1790 C.3       1 <0>         0.0372
     13 H1          1.6528   -1.1162   -1.0989 H         1 <0>         0.0816
     14 H2          1.4866   -2.2814    0.2387 H         1 <0>         0.0816
     15 H3         -0.1295   -0.8554    1.2356 H         1 <0>         0.2014
     16 H4          0.0304    0.2760    0.0562 H         1 <0>         0.2014
     17 H5          2.2619   -0.6084    1.8703 H         1 <0>         0.0369
     18 H6          3.4693   -0.8651    0.6231 H         1 <0>         0.0369
     19 H7         -0.7492   -1.2008   -1.6335 H         1 <0>         0.0822
     20 H8         -0.8910   -2.4773   -0.3929 H         1 <0>         0.0822
     21 H9          3.2799    1.5287    1.1990 H         1 <0>         0.0815
     22 H10         1.5641    1.5611    0.7420 H         1 <0>         0.0815
     23 H11        -3.1096   -1.4030   -0.7739 H         1 <0>         0.0432
     24 H12        -2.5419   -1.1155    0.8752 H         1 <0>         0.0432
     25 H13         3.0322    2.3663   -0.9813 H         1 <0>         0.1994
     26 H14         2.2064    1.0336   -1.5082 H         1 <0>         0.1994
     27 H15         3.8065    0.9051   -1.0810 H         1 <0>         0.1994
@<TRIPOS>BOND
     1    1    2 1
     2    1   12 1
     3    2    3 1
     4    2    4 1
     5    2    5 2
     6    6    8 1
     7    6   10 1
     8    6   15 1
     9    6   16 1
    10    7   11 1
    11    7   25 1
    12    7   26 1
    13    7   27 1
    14    8    9 1
    15    8   13 1
    16    8   14 1
    17    9   11 1
    18    9   17 1
    19    9   18 1
    20   10   12 1
    21   10   19 1
    22   10   20 1
    23   11   21 1
    24   11   22 1
    25   12   23 1
    26   12   24 1
