@<TRIPOS>MOLECULE
DB01054
   46    47     0     0     0
SMALL
USER_CHARGES

@<TRIPOS>ATOM
      1 O1         -2.4900   -0.8582    0.7368 O.3       1 <0>        -0.4616
      2 O2          3.6979    0.4557    1.4025 O.3       1 <0>        -0.4646
      3 O3         -1.4763   -1.7536    2.6156 O.2       1 <0>        -0.2452
      4 O4          3.1320    1.7725   -0.4155 O.2       1 <0>        -0.2452
      5 O5         -2.0861    3.2750   -3.4819 O.3       1 <0>        -0.5760
      6 O6         -1.2012    1.2816   -3.7657 O.2       1 <0>         0.0414
      7 N1          1.3054   -2.3391   -0.8415 N.pl3     1 <0>        -0.3207
      8 N2         -1.4848    2.2660   -3.0421 N.pl3     1 <0>         0.0796
      9 C1          0.6404   -0.0868    0.7435 C.3       1 <0>         0.0508
     10 C2         -0.2478   -1.3314    0.6331 C.2       1 <0>         0.0652
     11 C3          1.9925   -0.2546    0.0430 C.2       1 <0>         0.0651
     12 C4         -0.0803    1.1073    0.1861 C.ar      1 <0>        -0.0287
     13 C5          0.1057   -2.3773   -0.1482 C.2       1 <0>         0.0157
     14 C6          2.2535   -1.3355   -0.7262 C.2       1 <0>         0.0157
     15 C7         -0.4419    1.1276   -1.1555 C.ar      1 <0>         0.0197
     16 C8         -1.4607   -1.3509    1.4670 C.2       1 <0>         0.3375
     17 C9         -0.3771    2.1802    1.0182 C.ar      1 <0>        -0.0572
     18 C10        -0.7085   -3.6256   -0.3561 C.3       1 <0>        -0.0260
     19 C11         3.5247   -1.5718   -1.4961 C.3       1 <0>        -0.0260
     20 C12         2.9980    0.7912    0.2921 C.2       1 <0>         0.3373
     21 C13        -1.1103    2.2371   -1.6729 C.ar      1 <0>         0.2734
     22 C14        -1.0455    3.2897    0.5009 C.ar      1 <0>        -0.0551
     23 C15        -1.4121    3.3182   -0.8447 C.ar      1 <0>         0.0156
     24 C16        -3.7487   -0.8120    1.4164 C.3       1 <0>         0.0900
     25 C17         4.7215    1.3833    1.7780 C.3       1 <0>         0.0820
     26 C18        -4.7938   -0.2430    0.4806 C.3       1 <0>        -0.0306
     27 H1          0.8499    0.0589    1.8131 H         1 <0>         0.0451
     28 H2          1.5350   -3.1362   -1.4246 H         1 <0>         0.1516
     29 H3         -0.2023    0.2797   -1.7919 H         1 <0>         0.0688
     30 H4         -0.0975    2.1716    2.0679 H         1 <0>         0.0621
     31 H5         -0.1436   -4.5043   -0.0264 H         1 <0>         0.0290
     32 H6         -0.9482   -3.7477   -1.4179 H         1 <0>         0.0290
     33 H7         -1.6535   -3.6157    0.1943 H         1 <0>         0.0290
     34 H8          4.0140   -2.4871   -1.1462 H         1 <0>         0.0290
     35 H9          4.2434   -0.7537   -1.3945 H         1 <0>         0.0290
     36 H10         3.3044   -1.6842   -2.5631 H         1 <0>         0.0290
     37 H11        -1.2804    4.1312    1.1462 H         1 <0>         0.0620
     38 H12        -1.9319    4.1993   -1.2123 H         1 <0>         0.0685
     39 H13        -4.0366   -1.8243    1.7215 H         1 <0>         0.0695
     40 H14        -3.6609   -0.1754    2.3040 H         1 <0>         0.0695
     41 H15         5.2088    1.0047    2.6805 H         1 <0>         0.0661
     42 H16         4.2836    2.3614    1.9991 H         1 <0>         0.0661
     43 H17         5.4689    1.4647    0.9828 H         1 <0>         0.0661
     44 H18        -5.7706   -0.1914    0.9694 H         1 <0>         0.0262
     45 H19        -4.5088    0.7619    0.1513 H         1 <0>         0.0262
     46 H20        -4.8806   -0.8593   -0.4203 H         1 <0>         0.0262
@<TRIPOS>BOND
     1    1   16 1
     2    1   24 1
     3    2   20 1
     4    2   25 1
     5    3   16 2
     6    4   20 2
     7    5    8 1
     8    6    8 2
     9    7   13 1
    10    7   14 1
    11    7   28 1
    12    8   21 1
    13    9   10 1
    14    9   11 1
    15    9   12 1
    16    9   27 1
    17   10   13 2
    18   10   16 1
    19   11   14 2
    20   11   20 1
    21   12   15 ar
    22   12   17 ar
    23   13   18 1
    24   14   19 1
    25   15   21 ar
    26   15   29 1
    27   17   22 ar
    28   17   30 1
    29   18   31 1
    30   18   32 1
    31   18   33 1
    32   19   34 1
    33   19   35 1
    34   19   36 1
    35   21   23 ar
    36   22   23 ar
    37   22   37 1
    38   23   38 1
    39   24   26 1
    40   24   39 1
    41   24   40 1
    42   25   41 1
    43   25   42 1
    44   25   43 1
    45   26   44 1
    46   26   45 1
    47   26   46 1
