@<TRIPOS>MOLECULE
DB01618
   44    46     0     0     0
SMALL
USER_CHARGES

@<TRIPOS>ATOM
      1 O1         -5.7189    0.1270    0.7210 O.3       1 <0>        -0.3772
      2 O2          0.7789    2.0317   -0.3222 O.2       1 <0>        -0.2916
      3 N1         -3.0739    0.2218   -0.3257 N.3       1 <0>        -0.2973
      4 N2          3.0277   -1.9324   -0.0764 N.pl3     1 <0>        -0.3611
      5 C1         -0.6547    0.0999    0.0402 C.3       1 <0>         0.0352
      6 C2         -0.6428   -1.3403   -0.5238 C.3       1 <0>        -0.0366
      7 C3         -1.8020    0.8974   -0.5741 C.3       1 <0>         0.0089
      8 C4          0.5114   -2.1824    0.0452 C.3       1 <0>        -0.0111
      9 C5          1.8732   -0.0312   -0.1753 C.2       1 <0>         0.0416
     10 C6          1.7682   -1.4014   -0.0652 C.cat     1 <0>         0.0270
     11 C7          0.6931    0.8142   -0.1906 C.2       1 <0>         0.1694
     12 C8          3.2513    0.2779   -0.2670 C.2       1 <0>        -0.0166
     13 C9         -3.3257    0.0975    1.1166 C.3       1 <0>         0.0225
     14 C10        -4.1815    0.9413   -0.9700 C.3       1 <0>         0.0225
     15 C11         3.9416   -0.9152   -0.2014 C.2       1 <0>         0.0169
     16 C12        -4.6630   -0.5997    1.3503 C.3       1 <0>         0.0604
     17 C13        -5.4989    0.2254   -0.6866 C.3       1 <0>         0.0604
     18 C14         3.8519    1.6208   -0.4044 C.3       1 <0>        -0.0282
     19 C15         5.3896   -1.1983   -0.2466 C.3       1 <0>        -0.0242
     20 C16         4.1619    2.2744    0.9460 C.3       1 <0>        -0.0612
     21 H1         -0.7315    0.0623    1.1336 H         1 <0>         0.0393
     22 H2         -0.5425   -1.2985   -1.6174 H         1 <0>         0.0276
     23 H3         -1.5784   -1.8684   -0.3096 H         1 <0>         0.0276
     24 H4         -1.6346    0.9922   -1.6552 H         1 <0>         0.0433
     25 H5         -1.8152    1.9180   -0.1687 H         1 <0>         0.0433
     26 H6          0.5860   -3.1285   -0.5019 H         1 <0>         0.0328
     27 H7          0.3179   -2.4164    1.0985 H         1 <0>         0.0328
     28 H8         -2.5796   -0.5179    1.6253 H         1 <0>         0.0449
     29 H9         -3.3406    1.0875    1.5905 H         1 <0>         0.0449
     30 H10        -4.2376    1.9706   -0.5920 H         1 <0>         0.0449
     31 H11        -4.0272    0.9852   -2.0542 H         1 <0>         0.0449
     32 H12         3.2499   -2.9164   -0.0090 H         1 <0>         0.1653
     33 H13        -4.6536   -1.6305    0.9752 H         1 <0>         0.0572
     34 H14        -4.8809   -0.6395    2.4224 H         1 <0>         0.0572
     35 H15        -6.3313    0.7932   -1.1147 H         1 <0>         0.0572
     36 H16        -5.5182   -0.7773   -1.1310 H         1 <0>         0.0572
     37 H17         4.7839    1.5545   -0.9799 H         1 <0>         0.0311
     38 H18         3.1982    2.2814   -0.9841 H         1 <0>         0.0311
     39 H19         5.6075   -2.2492   -0.0297 H         1 <0>         0.0292
     40 H20         5.7920   -0.9691   -1.2386 H         1 <0>         0.0292
     41 H21         5.9251   -0.5897    0.4890 H         1 <0>         0.0292
     42 H22         3.2505    2.4009    1.5400 H         1 <0>         0.0233
     43 H23         4.6107    3.2610    0.7935 H         1 <0>         0.0233
     44 H24         4.8623    1.6663    1.5280 H         1 <0>         0.0233
@<TRIPOS>BOND
     1    1   16 1
     2    1   17 1
     3    2   11 2
     4    3    7 1
     5    3   13 1
     6    3   14 1
     7    4   10 1
     8    4   15 2
     9    4   32 1
    10    5    6 1
    11    5    7 1
    12    5   11 1
    13    5   21 1
    14    6    8 1
    15    6   22 1
    16    6   23 1
    17    7   24 1
    18    7   25 1
    19    8   10 1
    20    8   26 1
    21    8   27 1
    22    9   10 1
    23    9   11 1
    24    9   12 2
    25   12   15 1
    26   12   18 1
    27   13   16 1
    28   13   28 1
    29   13   29 1
    30   14   17 1
    31   14   30 1
    32   14   31 1
    33   15   19 1
    34   16   33 1
    35   16   34 1
    36   17   35 1
    37   17   36 1
    38   18   20 1
    39   18   37 1
    40   18   38 1
    41   19   39 1
    42   19   40 1
    43   19   41 1
    44   20   42 1
    45   20   43 1
    46   20   44 1
