@<TRIPOS>MOLECULE
DB01023
   44    45     0     0     0
SMALL
USER_CHARGES

@<TRIPOS>ATOM
      1 Cl1         0.0404   -2.6772    2.0665 Cl        1 <0>        -0.0817
      2 Cl2         1.4239   -4.9683    0.2884 Cl        1 <0>        -0.0820
      3 O1          2.6161    0.5695    0.5516 O.3       1 <0>        -0.4616
      4 O2         -3.5878   -0.6255    1.2896 O.3       1 <0>        -0.4646
      5 O3          1.7189    1.1784    2.5970 O.2       1 <0>        -0.2452
      6 O4         -3.1527   -1.6445   -0.7430 O.2       1 <0>        -0.2452
      7 N1         -1.1774    2.4169   -0.5825 N.pl3     1 <0>        -0.3207
      8 C1         -0.5405   -0.0861    0.5822 C.3       1 <0>         0.0520
      9 C2          0.3929    1.1289    0.6331 C.2       1 <0>         0.0652
     10 C3         -1.9124    0.2401   -0.0163 C.2       1 <0>         0.0652
     11 C4          0.1066   -1.1963   -0.1953 C.ar      1 <0>        -0.0154
     12 C5          0.0506    2.3002    0.0497 C.2       1 <0>         0.0157
     13 C6         -2.1605    1.4408   -0.5864 C.2       1 <0>         0.0157
     14 C7          1.6390    0.9704    1.4004 C.2       1 <0>         0.3375
     15 C8          0.9062    3.5375    0.0087 C.3       1 <0>        -0.0260
     16 C9         -3.4517    1.8430   -1.2464 C.3       1 <0>        -0.0260
     17 C10        -2.9490   -0.7978    0.1073 C.2       1 <0>         0.3373
     18 C11         0.4129   -2.4201    0.3918 C.ar      1 <0>         0.0633
     19 C12         0.3951   -0.9650   -1.5370 C.ar      1 <0>        -0.0562
     20 C13         1.0138   -3.4223   -0.3700 C.ar      1 <0>         0.0595
     21 C14         0.9960   -1.9671   -2.2986 C.ar      1 <0>        -0.0600
     22 C15         1.3053   -3.1958   -1.7152 C.ar      1 <0>        -0.0420
     23 C16         3.8990    0.3698    1.1538 C.3       1 <0>         0.0900
     24 C17        -4.6323   -1.5668    1.5578 C.3       1 <0>         0.0820
     25 C18         4.8798   -0.0731    0.0892 C.3       1 <0>        -0.0306
     26 H1         -0.7356   -0.3387    1.6293 H         1 <0>         0.0452
     27 H2         -1.3980    3.3062   -1.0168 H         1 <0>         0.1516
     28 H3          0.3922    4.3686    0.5034 H         1 <0>         0.0290
     29 H4          1.1063    3.8241   -1.0293 H         1 <0>         0.0290
     30 H5          1.8721    3.4054    0.5044 H         1 <0>         0.0290
     31 H6         -3.8879    2.7045   -0.7294 H         1 <0>         0.0290
     32 H7         -4.1987    1.0441   -1.2448 H         1 <0>         0.0290
     33 H8         -3.2716    2.1216   -2.2903 H         1 <0>         0.0290
     34 H9          0.1678   -0.0197   -2.0214 H         1 <0>         0.0621
     35 H10         1.2234   -1.7908   -3.3459 H         1 <0>         0.0618
     36 H11         1.7736   -3.9652   -2.3241 H         1 <0>         0.0633
     37 H12         4.2406    1.3079    1.6054 H         1 <0>         0.0695
     38 H13         3.8218   -0.4006    1.9293 H         1 <0>         0.0695
     39 H14        -4.2255   -2.5819    1.5985 H         1 <0>         0.0661
     40 H15        -5.4136   -1.4932    0.7954 H         1 <0>         0.0661
     41 H16        -5.0671   -1.3238    2.5310 H         1 <0>         0.0661
     42 H17         5.8733   -0.2368    0.5160 H         1 <0>         0.0262
     43 H18         4.5406   -1.0004   -0.3843 H         1 <0>         0.0262
     44 H19         4.9542    0.6793   -0.7030 H         1 <0>         0.0262
@<TRIPOS>BOND
     1    1   18 1
     2    2   20 1
     3    3   14 1
     4    3   23 1
     5    4   17 1
     6    4   24 1
     7    5   14 2
     8    6   17 2
     9    7   12 1
    10    7   13 1
    11    7   27 1
    12    8    9 1
    13    8   10 1
    14    8   11 1
    15    8   26 1
    16    9   12 2
    17    9   14 1
    18   10   13 2
    19   10   17 1
    20   11   18 ar
    21   11   19 ar
    22   12   15 1
    23   13   16 1
    24   15   28 1
    25   15   29 1
    26   15   30 1
    27   16   31 1
    28   16   32 1
    29   16   33 1
    30   18   20 ar
    31   19   21 ar
    32   19   34 1
    33   20   22 ar
    34   21   22 ar
    35   21   35 1
    36   22   36 1
    37   23   25 1
    38   23   37 1
    39   23   38 1
    40   24   39 1
    41   24   40 1
    42   24   41 1
    43   25   42 1
    44   25   43 1
    45   25   44 1
