@<TRIPOS>MOLECULE
DB01048
   39    42     0     0     0
SMALL
USER_CHARGES

@<TRIPOS>ATOM
      1 O1         -5.4694    1.8180    0.1540 O.3       1 <0>        -0.3944
      2 N1          3.6350   -0.6051   -0.4245 N.pl3     1 <0>        -0.3243
      3 N2         -0.8297   -1.6809    0.0308 N.pl3     1 <0>        -0.3079
      4 N3          1.2364   -2.4673   -0.2623 N.2       1 <0>        -0.2306
      5 N4          2.0289    1.1428   -0.1212 N.2       1 <0>        -0.1976
      6 N5         -0.3580    0.7000    0.1304 N.2       1 <0>        -0.1949
      7 N6          0.4869    2.8818    0.1711 N.pl3     1 <0>        -0.3274
      8 C1          4.7836    0.2964   -0.5009 C.3       1 <0>         0.0221
      9 C2          5.4672    0.7990    0.7377 C.3       1 <0>        -0.0329
     10 C3          6.1693   -0.1733   -0.1644 C.3       1 <0>        -0.0329
     11 C4         -2.2832   -1.6819    0.2023 C.3       1 <0>         0.0560
     12 C5         -3.0305   -0.8647   -0.8669 C.3       1 <0>        -0.0201
     13 C6         -4.2012   -0.1857   -0.1358 C.3       1 <0>         0.0025
     14 C7         -2.7404   -1.0637    1.4875 C.2       1 <0>        -0.0650
     15 C8         -3.7805   -0.2459    1.3004 C.2       1 <0>        -0.0807
     16 C9          2.3086   -0.1775   -0.2403 C.2       1 <0>         0.1518
     17 C10        -0.0086   -0.5890    0.0053 C.2       1 <0>         0.1677
     18 C11         1.2672   -1.0980   -0.1776 C.2       1 <0>         0.1476
     19 C12        -4.4378    1.2363   -0.6239 C.3       1 <0>         0.0505
     20 C13        -0.0348   -2.7849   -0.1334 C.cat     1 <0>         0.0988
     21 C14         0.7320    1.4944    0.0541 C.2       1 <0>         0.2162
     22 H1          4.7039    0.9845   -1.3368 H         1 <0>         0.0498
     23 H2          5.1253    0.4361    1.6992 H         1 <0>         0.0284
     24 H3          5.8124    1.8254    0.7414 H         1 <0>         0.0284
     25 H4          6.9889    0.1986   -0.7667 H         1 <0>         0.0284
     26 H5          6.2978   -1.1878    0.1926 H         1 <0>         0.0284
     27 H6         -2.6088   -2.7295    0.1752 H         1 <0>         0.0573
     28 H7         -3.4028   -1.5213   -1.6628 H         1 <0>         0.0295
     29 H8         -2.3883   -0.1271   -1.3620 H         1 <0>         0.0295
     30 H9         -5.1225   -0.7719   -0.2442 H         1 <0>         0.0366
     31 H10         3.7700   -1.6071   -0.5134 H         1 <0>         0.1478
     32 H11        -2.3071   -1.2802    2.4539 H         1 <0>         0.0589
     33 H12        -4.2875    0.2693    2.1043 H         1 <0>         0.0573
     34 H13        -4.7452    1.2370   -1.6747 H         1 <0>         0.0563
     35 H14        -3.5385    1.8539   -0.5205 H         1 <0>         0.0563
     36 H15        -0.4346   -3.7897   -0.1512 H         1 <0>         0.1029
     37 H16        -5.6051    2.7213   -0.1796 H         1 <0>         0.2094
     38 H17         1.2615    3.5289    0.1209 H         1 <0>         0.1452
     39 H18        -0.4604    3.2090    0.3020 H         1 <0>         0.1452
@<TRIPOS>BOND
     1    1   19 1
     2    1   37 1
     3    2    8 1
     4    2   16 1
     5    2   31 1
     6    3   11 1
     7    3   17 1
     8    3   20 2
     9    4   18 2
    10    4   20 1
    11    5   16 2
    12    5   21 1
    13    6   17 1
    14    6   21 2
    15    7   21 1
    16    7   38 1
    17    7   39 1
    18    8    9 1
    19    8   10 1
    20    8   22 1
    21    9   10 1
    22    9   23 1
    23    9   24 1
    24   10   25 1
    25   10   26 1
    26   11   12 1
    27   11   14 1
    28   11   27 1
    29   12   13 1
    30   12   28 1
    31   12   29 1
    32   13   15 1
    33   13   19 1
    34   13   30 1
    35   14   15 2
    36   14   32 1
    37   15   33 1
    38   16   18 1
    39   17   18 2
    40   19   34 1
    41   19   35 1
    42   20   36 1
