@<TRIPOS>MOLECULE
DB01336
   96   102     0     0     0
SMALL
USER_CHARGES

@<TRIPOS>ATOM
      1 O1         -2.2504   -0.9017   -1.2980 O.3       1 <0>        -0.4517
      2 O2          2.1036    2.6233   -1.2544 O.3       1 <0>        -0.4487
      3 O3         -3.8877   -3.0551   -1.5856 O.3       1 <0>        -0.4885
      4 O4         -6.3442   -3.1089   -0.3504 O.3       1 <0>        -0.4913
      5 O5          2.7956    3.6326    1.1946 O.3       1 <0>        -0.4914
      6 O6          1.8565    1.8079   -3.9037 O.3       1 <0>        -0.4914
      7 N1         -3.1746    2.0621    1.9067 N.4       1 <0>         0.2450
      8 N2          5.3265   -2.2629    0.6280 N.4       1 <0>         0.2449
      9 C1         -2.8260    1.3085    0.5670 C.3       1 <0>         0.0143
     10 C2          3.9587   -1.8118   -0.0112 C.3       1 <0>         0.0107
     11 C3         -4.6597    2.4088    1.9049 C.3       1 <0>        -0.0259
     12 C4          5.3125   -1.9783    2.1331 C.3       1 <0>        -0.0259
     13 C5         -3.7650    0.1279    0.2981 C.ar      1 <0>         0.0499
     14 C6         -5.5203    1.1546    1.8490 C.3       1 <0>         0.0135
     15 C7          3.6432   -0.3596    0.3170 C.ar      1 <0>         0.0076
     16 C8         -2.8012    2.2644   -0.6613 C.3       1 <0>         0.0202
     17 C9         -5.0428    0.0893    0.8952 C.ar      1 <0>        -0.0266
     18 C10         5.0168   -0.5148    2.4528 C.3       1 <0>         0.0133
     19 C11        -2.8087    1.1649    3.1098 C.3       1 <0>        -0.0409
     20 C12        -2.3652    3.3494    2.1120 C.3       1 <0>        -0.0409
     21 C13         2.8161   -2.7874    0.4119 C.3       1 <0>         0.0200
     22 C14         4.0750    0.2092    1.5256 C.ar      1 <0>        -0.0302
     23 C15         5.5897   -3.7586    0.4125 C.3       1 <0>        -0.0409
     24 C16         6.4916   -1.5239   -0.0541 C.3       1 <0>        -0.0409
     25 C17        -3.3989   -0.9402   -0.5470 C.ar      1 <0>         0.1822
     26 C18        -1.5453    2.1291   -1.5044 C.ar      1 <0>        -0.0380
     27 C19         2.9545    0.4431   -0.6127 C.ar      1 <0>        -0.0069
     28 C20        -5.8948   -1.0058    0.6633 C.ar      1 <0>        -0.0122
     29 C21         1.4237   -2.4029   -0.0286 C.ar      1 <0>        -0.0415
     30 C22         3.7489    1.5454    1.8144 C.ar      1 <0>        -0.0125
     31 C23        -4.2625   -2.0156   -0.7829 C.ar      1 <0>         0.2046
     32 C24         2.6527    1.7748   -0.3185 C.ar      1 <0>         0.1704
     33 C25        -5.5064   -2.0520   -0.1678 C.ar      1 <0>         0.1655
     34 C26         3.0432    2.3254    0.8986 C.ar      1 <0>         0.1624
     35 C27        -0.2766    2.3818   -0.9579 C.ar      1 <0>        -0.0123
     36 C28        -1.6374    1.7897   -2.8621 C.ar      1 <0>        -0.0547
     37 C29         1.1033   -2.2871   -1.3847 C.ar      1 <0>        -0.0549
     38 C30         0.4370   -2.1323    0.9302 C.ar      1 <0>        -0.0549
     39 C31        -1.1106   -1.4938   -0.8050 C.ar      1 <0>         0.1286
     40 C32         0.8692    2.2726   -1.7507 C.ar      1 <0>         0.1702
     41 C33        -0.1498   -1.8139   -1.7690 C.ar      1 <0>        -0.0191
     42 C34        -0.8291   -1.6909    0.5463 C.ar      1 <0>        -0.0191
     43 C35        -0.4889    1.6910   -3.6518 C.ar      1 <0>        -0.0160
     44 C36         0.7659    1.9416   -3.1003 C.ar      1 <0>         0.1621
     45 C37        -4.1891   -2.9418   -2.9743 C.3       1 <0>         0.0791
     46 C38        -6.2290   -4.1937    0.5685 C.3       1 <0>         0.0790
     47 C39         3.7959    4.5817    0.8289 C.3       1 <0>         0.0790
     48 C40         2.3099    2.9777   -4.5849 C.3       1 <0>         0.0790
     49 H1         -1.8233    0.9175    0.7639 H         1 <0>         0.0909
     50 H2          4.1189   -1.9024   -1.0940 H         1 <0>         0.0908
     51 H3         -4.8431    3.0471    1.0328 H         1 <0>         0.0818
     52 H4         -4.8760    2.9897    2.8091 H         1 <0>         0.0818
     53 H5          6.2862   -2.2763    2.5405 H         1 <0>         0.0818
     54 H6          4.5578   -2.6277    2.5872 H         1 <0>         0.0818
     55 H7         -6.5403    1.4533    1.5766 H         1 <0>         0.0365
     56 H8         -5.5803    0.7122    2.8516 H         1 <0>         0.0365
     57 H9         -2.8718    3.3211   -0.3979 H         1 <0>         0.0372
     58 H10        -3.6811    2.0843   -1.2941 H         1 <0>         0.0372
     59 H11         5.9690    0.0325    2.4431 H         1 <0>         0.0365
     60 H12         4.6328   -0.4543    3.4787 H         1 <0>         0.0365
     61 H13        -3.1652    1.6530    4.0219 H         1 <0>         0.0778
     62 H14        -3.2715    0.1826    3.0006 H         1 <0>         0.0778
     63 H15        -1.7198    1.0561    3.1325 H         1 <0>         0.0778
     64 H16        -2.7066    4.1198    1.4190 H         1 <0>         0.0778
     65 H17        -2.5386    3.7028    3.1341 H         1 <0>         0.0778
     66 H18        -1.3073    3.1190    1.9719 H         1 <0>         0.0778
     67 H19         2.8015   -2.9090    1.4999 H         1 <0>         0.0372
     68 H20         3.0038   -3.7858   -0.0016 H         1 <0>         0.0372
     69 H21         6.6110   -3.9797    0.7384 H         1 <0>         0.0778
     70 H22         4.8876   -4.3388    1.0165 H         1 <0>         0.0778
     71 H23         5.4709   -3.9783   -0.6523 H         1 <0>         0.0778
     72 H24         7.4231   -1.8276    0.4330 H         1 <0>         0.0778
     73 H25         6.5020   -1.8082   -1.1107 H         1 <0>         0.0778
     74 H26         6.3555   -0.4451    0.0417 H         1 <0>         0.0778
     75 H27         2.6950    0.0357   -1.5857 H         1 <0>         0.0660
     76 H28        -6.8688   -1.0418    1.1476 H         1 <0>         0.0658
     77 H29         4.0933    1.9935    2.7446 H         1 <0>         0.0658
     78 H30        -0.1795    2.6861    0.0792 H         1 <0>         0.0658
     79 H31        -2.6061    1.5955   -3.3161 H         1 <0>         0.0621
     80 H32         1.8439   -2.5116   -2.1478 H         1 <0>         0.0621
     81 H33         0.6568   -2.2334    1.9903 H         1 <0>         0.0621
     82 H34        -0.3627   -1.6699   -2.8254 H         1 <0>         0.0654
     83 H35        -1.5500   -1.4615    1.3242 H         1 <0>         0.0654
     84 H36        -0.5846    1.4182   -4.6996 H         1 <0>         0.0655
     85 H37        -3.8216   -3.8397   -3.4784 H         1 <0>         0.0660
     86 H38        -5.2705   -2.8721   -3.1283 H         1 <0>         0.0660
     87 H39        -3.6917   -2.0692   -3.4093 H         1 <0>         0.0660
     88 H40        -6.4563   -3.8602    1.5859 H         1 <0>         0.0660
     89 H41        -5.2242   -4.6265    0.5306 H         1 <0>         0.0660
     90 H42        -6.9517   -4.9628    0.2828 H         1 <0>         0.0660
     91 H43         3.4409    5.5775    1.1079 H         1 <0>         0.0660
     92 H44         3.9711    4.5629   -0.2514 H         1 <0>         0.0660
     93 H45         4.7291    4.3802    1.3644 H         1 <0>         0.0660
     94 H46         1.5325    3.3547   -5.2569 H         1 <0>         0.0660
     95 H47         2.5969    3.7537   -3.8684 H         1 <0>         0.0660
     96 H48         3.1871    2.7087   -5.1797 H         1 <0>         0.0660
@<TRIPOS>BOND
     1    1   25 1
     2    1   39 1
     3    2   32 1
     4    2   40 1
     5    3   31 1
     6    3   45 1
     7    4   33 1
     8    4   46 1
     9    5   34 1
    10    5   47 1
    11    6   44 1
    12    6   48 1
    13    7    9 1
    14    7   11 1
    15    7   19 1
    16    7   20 1
    17    8   10 1
    18    8   12 1
    19    8   23 1
    20    8   24 1
    21    9   13 1
    22    9   16 1
    23    9   49 1
    24   10   15 1
    25   10   21 1
    26   10   50 1
    27   11   14 1
    28   11   51 1
    29   11   52 1
    30   12   18 1
    31   12   53 1
    32   12   54 1
    33   13   17 ar
    34   13   25 ar
    35   14   17 1
    36   14   55 1
    37   14   56 1
    38   15   22 ar
    39   15   27 ar
    40   16   26 1
    41   16   57 1
    42   16   58 1
    43   17   28 ar
    44   18   22 1
    45   18   59 1
    46   18   60 1
    47   19   61 1
    48   19   62 1
    49   19   63 1
    50   20   64 1
    51   20   65 1
    52   20   66 1
    53   21   29 1
    54   21   67 1
    55   21   68 1
    56   22   30 ar
    57   23   69 1
    58   23   70 1
    59   23   71 1
    60   24   72 1
    61   24   73 1
    62   24   74 1
    63   25   31 ar
    64   26   35 ar
    65   26   36 ar
    66   27   32 ar
    67   27   75 1
    68   28   33 ar
    69   28   76 1
    70   29   37 ar
    71   29   38 ar
    72   30   34 ar
    73   30   77 1
    74   31   33 ar
    75   32   34 ar
    76   35   40 ar
    77   35   78 1
    78   36   43 ar
    79   36   79 1
    80   37   41 ar
    81   37   80 1
    82   38   42 ar
    83   38   81 1
    84   39   41 ar
    85   39   42 ar
    86   40   44 ar
    87   41   82 1
    88   42   83 1
    89   43   44 ar
    90   43   84 1
    91   45   85 1
    92   45   86 1
    93   45   87 1
    94   46   88 1
    95   46   89 1
    96   46   90 1
    97   47   91 1
    98   47   92 1
    99   47   93 1
   100   48   94 1
   101   48   95 1
   102   48   96 1
