@<TRIPOS>MOLECULE
DB01579
   31    32     0     0     0
SMALL
USER_CHARGES

@<TRIPOS>ATOM
      1 O1          0.2587    1.7587   -0.5217 O.3       1 <0>        -0.3692
      2 N1          2.3009   -0.0662    0.2800 N.3       1 <0>        -0.2977
      3 C1          0.8994   -0.5321    0.1157 C.3       1 <0>         0.0377
      4 C2         -0.0706    0.6642    0.3449 C.3       1 <0>         0.0989
      5 C3          2.5666    1.0822   -0.6013 C.3       1 <0>         0.0225
      6 C4          1.5908    2.2083   -0.3031 C.3       1 <0>         0.0612
      7 C5          0.5698   -1.6722    1.0938 C.3       1 <0>        -0.0468
      8 C6         -1.5250    0.3351    0.0729 C.ar      1 <0>        -0.0174
      9 C7          3.2855   -1.1178    0.0103 C.3       1 <0>        -0.0123
     10 C8         -2.5308    0.9961    0.7759 C.ar      1 <0>        -0.0561
     11 C9         -1.8539   -0.6279   -0.8797 C.ar      1 <0>        -0.0561
     12 C10        -3.8692    0.6933    0.5257 C.ar      1 <0>        -0.0614
     13 C11        -3.1922   -0.9308   -1.1298 C.ar      1 <0>        -0.0614
     14 C12        -4.2000   -0.2702   -0.4273 C.ar      1 <0>        -0.0617
     15 H1          0.8161   -0.9035   -0.9121 H         1 <0>         0.0488
     16 H2          0.0199    1.0052    1.3868 H         1 <0>         0.0662
     17 H3          2.4737    0.7823   -1.6535 H         1 <0>         0.0449
     18 H4          3.5855    1.4542   -0.4433 H         1 <0>         0.0449
     19 H5          1.6947    2.5799    0.7235 H         1 <0>         0.0573
     20 H6          1.7736    3.0495   -0.9792 H         1 <0>         0.0573
     21 H7          1.1468   -2.5742    0.8669 H         1 <0>         0.0246
     22 H8          0.7913   -1.3793    2.1266 H         1 <0>         0.0246
     23 H9         -0.4815   -1.9699    1.0570 H         1 <0>         0.0246
     24 H10         3.2326   -1.9150    0.7577 H         1 <0>         0.0391
     25 H11         4.3043   -0.7185    0.0790 H         1 <0>         0.0391
     26 H12         3.1587   -1.5579   -0.9851 H         1 <0>         0.0391
     27 H13        -2.2859    1.7499    1.5192 H         1 <0>         0.0621
     28 H14        -1.1129   -1.1506   -1.4726 H         1 <0>         0.0621
     29 H15        -4.6539    1.2083    1.0721 H         1 <0>         0.0618
     30 H16        -3.4508   -1.6764   -1.8761 H         1 <0>         0.0618
     31 H17        -5.2422   -0.5048   -0.6233 H         1 <0>         0.0618
@<TRIPOS>BOND
     1    1    4 1
     2    1    6 1
     3    2    3 1
     4    2    5 1
     5    2    9 1
     6    3    4 1
     7    3    7 1
     8    3   15 1
     9    4    8 1
    10    4   16 1
    11    5    6 1
    12    5   17 1
    13    5   18 1
    14    6   19 1
    15    6   20 1
    16    7   21 1
    17    7   22 1
    18    7   23 1
    19    8   10 ar
    20    8   11 ar
    21    9   24 1
    22    9   25 1
    23    9   26 1
    24   10   12 ar
    25   10   27 1
    26   11   13 ar
    27   11   28 1
    28   12   14 ar
    29   12   29 1
    30   13   14 ar
    31   13   30 1
    32   14   31 1
