@<TRIPOS>MOLECULE
DB01328
   53    56     0     0     0
SMALL
USER_CHARGES

@<TRIPOS>ATOM
      1 S1          1.2760    0.5438   -1.4461 S.3       1 <0>        -0.1311
      2 S2         -3.3867   -0.1613   -0.5279 S.3       1 <0>        -0.0801
      3 S3         -6.1348   -1.8595    1.9668 S.o2      1 <0>         0.1002
      4 O1          1.0696    3.5265    2.1139 O.2       1 <0>        -0.2731
      5 O2         -1.7532    4.2211    0.8400 O.3       1 <0>        -0.4763
      6 O3          5.2017    1.7882   -0.3168 O.2       1 <0>        -0.2726
      7 O4         -2.5575    2.2205    1.6019 O.2       1 <0>        -0.2437
      8 O5          6.4282    0.1416    1.5225 O.3       1 <0>        -0.3779
      9 O6         -6.0255   -3.3771    2.5517 O.3       1 <0>        -0.2524
     10 O7         -5.0364   -1.0774    2.4955 O.2       1 <0>        -0.1456
     11 O8         -7.5111   -1.4196    2.0725 O.2       1 <0>        -0.1456
     12 N1          0.4125    2.5414    0.0746 N.am      1 <0>        -0.2490
     13 N2          3.1870    1.4362    0.7820 N.am      1 <0>        -0.2993
     14 N3         -5.9631   -1.1620   -0.6530 N.pl3     1 <0>        -0.1962
     15 N4         -5.6722    0.5798   -1.9117 N.2       1 <0>        -0.1015
     16 N5         -7.1501   -0.9472   -1.2374 N.2       1 <0>        -0.0416
     17 N6         -6.9661    0.1196   -2.0056 N.2       1 <0>        -0.0221
     18 C1          1.4297    2.2672   -0.9240 C.3       1 <0>         0.1042
     19 C2          2.4622    2.5585    0.1870 C.3       1 <0>         0.1284
     20 C3          1.2392    3.0243    1.0275 C.2       1 <0>         0.2440
     21 C4         -0.9113    2.3027   -0.1110 C.2       1 <0>         0.1228
     22 C5         -1.3537    1.5218   -1.1252 C.2       1 <0>        -0.0211
     23 C6         -0.4229    0.7689   -2.0732 C.3       1 <0>         0.0196
     24 C7         -2.8085    1.2757   -1.4457 C.3       1 <0>         0.0253
     25 C8          4.5153    1.1437    0.4735 C.2       1 <0>         0.2468
     26 C9         -1.8375    2.8767    0.8765 C.2       1 <0>         0.3514
     27 C10         5.0515   -0.0583    1.2382 C.3       1 <0>         0.1558
     28 C11         4.8971   -1.3364    0.4478 C.ar      1 <0>        -0.0103
     29 C12        -5.0695   -0.2273   -1.0693 C.cat     1 <0>         0.2112
     30 C13         3.7360   -2.0990    0.5748 C.ar      1 <0>        -0.0557
     31 C14         5.9153   -1.7537   -0.4096 C.ar      1 <0>        -0.0557
     32 C15        -5.7911   -2.2602    0.2640 C.3       1 <0>         0.1889
     33 C16         3.5930   -3.2788   -0.1552 C.ar      1 <0>        -0.0614
     34 C17         5.7722   -2.9336   -1.1396 C.ar      1 <0>        -0.0614
     35 C18         4.6110   -3.6961   -1.0124 C.ar      1 <0>        -0.0617
     36 H1          1.4365    3.0000   -1.7394 H         1 <0>         0.0644
     37 H2          3.1289    3.3967   -0.0512 H         1 <0>         0.0622
     38 H3         -0.3788    1.2970   -3.0321 H         1 <0>         0.0423
     39 H4         -0.8088   -0.2372   -2.2665 H         1 <0>         0.0423
     40 H5          2.7098    0.8283    1.4436 H         1 <0>         0.1496
     41 H6         -2.9412    1.1220   -2.5228 H         1 <0>         0.0427
     42 H7         -3.4147    2.1489   -1.1792 H         1 <0>         0.0427
     43 H8          4.5409   -0.1566    2.2035 H         1 <0>         0.0741
     44 H9         -2.3569    4.6466    1.4855 H         1 <0>         0.2954
     45 H10         6.4944    0.8997    2.1283 H         1 <0>         0.2109
     46 H11         2.9351   -1.7841    1.2385 H         1 <0>         0.0621
     47 H12         6.8241   -1.1724   -0.5380 H         1 <0>         0.0621
     48 H13        -6.4813   -3.0561   -0.0354 H         1 <0>         0.0779
     49 H14        -4.7693   -2.6410    0.1930 H         1 <0>         0.0779
     50 H15         2.6885   -3.8721   -0.0569 H         1 <0>         0.0618
     51 H16         6.5632   -3.2573   -1.8097 H         1 <0>         0.0618
     52 H17         4.4993   -4.6143   -1.5818 H         1 <0>         0.0618
     53 H18        -5.1165   -3.7590    2.5738 H         1 <0>         0.2445
@<TRIPOS>BOND
     1    1   18 1
     2    1   23 1
     3    2   24 1
     4    2   29 1
     5    3    9 1
     6    3   10 2
     7    3   11 2
     8    3   32 1
     9    4   20 2
    10    5   26 1
    11    5   44 1
    12    6   25 2
    13    7   26 2
    14    8   27 1
    15    8   45 1
    16    9   53 1
    17   12   18 1
    18   12   20 am
    19   12   21 1
    20   13   19 1
    21   13   25 am
    22   13   40 1
    23   14   16 1
    24   14   29 2
    25   14   32 1
    26   15   17 2
    27   15   29 1
    28   16   17 1
    29   18   19 1
    30   18   36 1
    31   19   20 1
    32   19   37 1
    33   21   22 2
    34   21   26 1
    35   22   23 1
    36   22   24 1
    37   23   38 1
    38   23   39 1
    39   24   41 1
    40   24   42 1
    41   25   27 1
    42   27   28 1
    43   27   43 1
    44   28   30 ar
    45   28   31 ar
    46   30   33 ar
    47   30   46 1
    48   31   34 ar
    49   31   47 1
    50   32   48 1
    51   32   49 1
    52   33   35 ar
    53   33   50 1
    54   34   35 ar
    55   34   51 1
    56   35   52 1
