@<TRIPOS>MOLECULE
DB01243
   18    19     0     0     0
SMALL
USER_CHARGES

@<TRIPOS>ATOM
      1 Cl1        -0.2545   -3.3430   -0.0009 Cl        1 <0>        -0.0828
      2 Cl2        -3.9500    0.5047   -0.0003 Cl        1 <0>        -0.0796
      3 O1         -1.6300    2.3713   -0.0004 O.3       1 <0>        -0.5033
      4 N1          1.0075    1.6761    0.0001 N.ar      1 <0>        -0.2512
      5 C1          0.4121   -0.6590    0.0001 C.ar      1 <0>         0.0224
      6 C2          0.0700    0.7094    0.0002 C.ar      1 <0>         0.1151
      7 C3         -1.2807    1.0469    0.0004 C.ar      1 <0>         0.1611
      8 C4         -0.5926   -1.6416    0.0003 C.ar      1 <0>         0.0517
      9 C5          1.7715   -0.9994    0.0000 C.ar      1 <0>        -0.0496
     10 C6         -2.2796    0.0703    0.0005 C.ar      1 <0>         0.0858
     11 C7         -1.9354   -1.2757    0.0005 C.ar      1 <0>        -0.0208
     12 C8          2.7397   -0.0056   -0.0001 C.ar      1 <0>        -0.0430
     13 C9          2.3084    1.3053    0.0001 C.ar      1 <0>         0.0284
     14 H1          2.1125   -2.0307   -0.0000 H         1 <0>         0.0625
     15 H2         -2.7132   -2.0364    0.0002 H         1 <0>         0.0648
     16 H3          3.7954   -0.2503   -0.0001 H         1 <0>         0.0633
     17 H4          3.0198    2.1247    0.0001 H         1 <0>         0.0830
     18 H5         -2.6009    2.4329   -0.0005 H         1 <0>         0.2923
@<TRIPOS>BOND
     1    1    8 1
     2    2   10 1
     3    3    7 1
     4    3   18 1
     5    4    6 ar
     6    4   13 ar
     7    5    6 ar
     8    5    8 ar
     9    5    9 ar
    10    6    7 ar
    11    7   10 ar
    12    8   11 ar
    13    9   12 ar
    14    9   14 1
    15   10   11 ar
    16   11   15 1
    17   12   13 ar
    18   12   16 1
    19   13   17 1
