@<TRIPOS>MOLECULE
DB01031
   25    25     0     0     0
SMALL
USER_CHARGES

@<TRIPOS>ATOM
      1 O1          1.0716    0.4094   -0.6934 O.3       1 <0>        -0.4310
      2 O2          2.5316    0.3967    1.0866 O.2       1 <0>        -0.2267
      3 N1          2.7695    1.8846   -0.6505 N.am      1 <0>        -0.2950
      4 C1          0.3435   -0.6702   -0.1038 C.3       1 <0>         0.1745
      5 C2         -0.8126   -1.0316   -1.0492 C.3       1 <0>        -0.0013
      6 C3         -0.1910   -0.2265    1.2677 C.3       1 <0>        -0.0013
      7 C4         -1.8476    0.0901   -1.1574 C.3       1 <0>        -0.0485
      8 C5         -1.2247    0.8949    1.1518 C.3       1 <0>        -0.0485
      9 C6         -2.3650    0.5123    0.2138 C.3       1 <0>        -0.0527
     10 C7          1.2481   -1.8229    0.0485 C.1       1 <0>        -0.0581
     11 C8          2.1538    0.8514    0.0118 C.2       1 <0>         0.3991
     12 C9          1.9854   -2.7621    0.1728 C.1       1 <0>        -0.1153
     13 H1         -1.3140   -1.9454   -0.7026 H         1 <0>         0.0314
     14 H2         -0.4277   -1.2418   -2.0557 H         1 <0>         0.0314
     15 H3          0.5668    0.0858    1.9887 H         1 <0>         0.0314
     16 H4         -0.6844   -1.0866    1.7448 H         1 <0>         0.0314
     17 H5         -2.6857   -0.2439   -1.7796 H         1 <0>         0.0267
     18 H6         -1.4031    0.9559   -1.6634 H         1 <0>         0.0267
     19 H7         -0.7419    1.8114    0.7922 H         1 <0>         0.0267
     20 H8         -1.6320    1.1202    2.1443 H         1 <0>         0.0267
     21 H9         -3.0521    1.3588    0.1041 H         1 <0>         0.0265
     22 H10        -2.9405   -0.3107    0.6555 H         1 <0>         0.0265
     23 H11         2.6398   -3.5948    0.2833 H         1 <0>         0.1229
     24 H12         2.4181    2.2265   -1.5386 H         1 <0>         0.1482
     25 H13         3.5939    2.3383   -0.2717 H         1 <0>         0.1482
@<TRIPOS>BOND
     1    1    4 1
     2    1   11 1
     3    2   11 2
     4    3   11 am
     5    3   24 1
     6    3   25 1
     7    4    5 1
     8    4    6 1
     9    4   10 1
    10    5    7 1
    11    5   13 1
    12    5   14 1
    13    6    8 1
    14    6   15 1
    15    6   16 1
    16    7    9 1
    17    7   17 1
    18    7   18 1
    19    8    9 1
    20    8   19 1
    21    8   20 1
    22    9   21 1
    23    9   22 1
    24   10   12 3
    25   12   23 1
