@<TRIPOS>MOLECULE
DB01088
   58    59     0     0     0
SMALL
USER_CHARGES

@<TRIPOS>ATOM
      1 O1         -0.7192    4.0297   -1.0538 O.3       1 <0>        -0.3912
      2 O2         -4.7593    0.9852   -2.3397 O.3       1 <0>        -0.3875
      3 O3          8.8754   -1.6732   -0.4874 O.3       1 <0>        -0.4806
      4 O4          7.4581   -2.5654    1.0491 O.2       1 <0>        -0.2510
      5 C1         -0.0117    1.2160    1.1268 C.3       1 <0>        -0.0255
      6 C2          1.1971    2.1466    1.2598 C.3       1 <0>        -0.0313
      7 C3         -0.7760    1.8010   -0.0694 C.3       1 <0>         0.0066
      8 C4          0.6979    3.5308    0.8413 C.3       1 <0>        -0.0229
      9 C5         -0.6647    3.3115    0.1692 C.3       1 <0>         0.0620
     10 C6          0.5799   -0.1749    0.9155 C.3       1 <0>        -0.0280
     11 C7          2.2465    1.5583    0.3096 C.3       1 <0>        -0.0285
     12 C8          1.9257    0.0911    0.3005 C.2       1 <0>        -0.0729
     13 C9         -2.1924    1.3303   -0.1480 C.2       1 <0>        -0.0797
     14 C10         2.7346   -0.8571   -0.1843 C.2       1 <0>        -0.0847
     15 C11        -2.7142    0.7086   -1.2156 C.2       1 <0>        -0.0592
     16 C12         4.0810   -0.5838   -0.7891 C.3       1 <0>        -0.0340
     17 C13        -4.1405    0.2351   -1.2942 C.3       1 <0>         0.0768
     18 C14         5.1857   -1.3447   -0.0492 C.3       1 <0>        -0.0395
     19 C15        -4.2475   -1.2818   -1.5975 C.3       1 <0>        -0.0034
     20 C16         6.5674   -1.0934   -0.6465 C.3       1 <0>         0.0451
     21 C17        -3.4902   -2.1643   -0.5795 C.3       1 <0>         0.0143
     22 C18        -5.7077   -1.7383   -1.7320 C.3       1 <0>        -0.0589
     23 C19         7.6526   -1.8577    0.0694 C.2       1 <0>         0.3047
     24 C20        -4.0065   -2.0527    0.7930 C.1       1 <0>        -0.1021
     25 C21        -4.4251   -1.9611    1.9149 C.1       1 <0>        -0.1056
     26 C22        -4.9364   -1.8453    3.2796 C.3       1 <0>        -0.0026
     27 H1         -0.6322    1.2432    2.0321 H         1 <0>         0.0313
     28 H2          1.5857    2.1531    2.2856 H         1 <0>         0.0308
     29 H3         -0.2660    1.5472   -1.0094 H         1 <0>         0.0371
     30 H4          1.4152    4.0590    0.2036 H         1 <0>         0.0293
     31 H5          0.5534    4.1508    1.7345 H         1 <0>         0.0293
     32 H6         -1.4661    3.6855    0.8173 H         1 <0>         0.0599
     33 H7          0.7179   -0.6682    1.8846 H         1 <0>         0.0313
     34 H8         -0.0537   -0.8042    0.2835 H         1 <0>         0.0313
     35 H9          2.1538    1.9686   -0.7024 H         1 <0>         0.0313
     36 H10         3.2499    1.7738    0.6900 H         1 <0>         0.0313
     37 H11        -2.8235    1.5064    0.7202 H         1 <0>         0.0573
     38 H12         2.4097   -1.8944   -0.1526 H         1 <0>         0.0572
     39 H13         0.0003    3.7107   -1.6249 H         1 <0>         0.2098
     40 H14        -2.0897    0.5339   -2.0888 H         1 <0>         0.0595
     41 H15         4.3262    0.4823   -0.8119 H         1 <0>         0.0308
     42 H16         4.0550   -0.9152   -1.8346 H         1 <0>         0.0308
     43 H17        -4.6848    0.4653   -0.3705 H         1 <0>         0.0640
     44 H18         4.9701   -2.4212   -0.0690 H         1 <0>         0.0273
     45 H19         5.1882   -1.0499    1.0087 H         1 <0>         0.0273
     46 H20        -3.7872   -1.4581   -2.5808 H         1 <0>         0.0335
     47 H21         6.5745   -1.4008   -1.6981 H         1 <0>         0.0378
     48 H22         6.8088   -0.0265   -0.5871 H         1 <0>         0.0378
     49 H23        -2.4216   -1.9212   -0.5888 H         1 <0>         0.0401
     50 H24        -3.5584   -3.2122   -0.8984 H         1 <0>         0.0401
     51 H25        -4.7444    1.9230   -2.0813 H         1 <0>         0.2102
     52 H26        -5.7640   -2.8135   -1.9335 H         1 <0>         0.0234
     53 H27        -6.2819   -1.5294   -0.8236 H         1 <0>         0.0234
     54 H28        -6.2011   -1.2227   -2.5626 H         1 <0>         0.0234
     55 H29         9.5732   -2.1730   -0.0125 H         1 <0>         0.2951
     56 H30        -4.4911   -0.9860    3.7901 H         1 <0>         0.0362
     57 H31        -4.7039   -2.7431    3.8601 H         1 <0>         0.0362
     58 H32        -6.0227   -1.7137    3.2783 H         1 <0>         0.0362
@<TRIPOS>BOND
     1    1    9 1
     2    1   39 1
     3    2   17 1
     4    2   51 1
     5    3   23 1
     6    3   55 1
     7    4   23 2
     8    5    6 1
     9    5    7 1
    10    5   10 1
    11    5   27 1
    12    6    8 1
    13    6   11 1
    14    6   28 1
    15    7    9 1
    16    7   13 1
    17    7   29 1
    18    8    9 1
    19    8   30 1
    20    8   31 1
    21    9   32 1
    22   10   12 1
    23   10   33 1
    24   10   34 1
    25   11   12 1
    26   11   35 1
    27   11   36 1
    28   12   14 2
    29   13   15 2
    30   13   37 1
    31   14   16 1
    32   14   38 1
    33   15   17 1
    34   15   40 1
    35   16   18 1
    36   16   41 1
    37   16   42 1
    38   17   19 1
    39   17   43 1
    40   18   20 1
    41   18   44 1
    42   18   45 1
    43   19   21 1
    44   19   22 1
    45   19   46 1
    46   20   23 1
    47   20   47 1
    48   20   48 1
    49   21   24 1
    50   21   49 1
    51   21   50 1
    52   22   52 1
    53   22   53 1
    54   22   54 1
    55   24   25 3
    56   25   26 1
    57   26   56 1
    58   26   57 1
    59   26   58 1
