@<TRIPOS>MOLECULE
DB01126
   67    71     0     0     0
SMALL
USER_CHARGES

@<TRIPOS>ATOM
      1 F1          4.8634   -3.6991    2.0907 F         1 <0>        -0.1658
      2 F2          3.8975   -1.9391    2.9113 F         1 <0>        -0.1658
      3 F3          3.0563   -2.9221    1.1635 F         1 <0>        -0.1658
      4 F4          8.6761    0.2110   -2.0299 F         1 <0>        -0.1659
      5 F5          6.8823    0.9994   -2.9599 F         1 <0>        -0.1659
      6 F6          7.7210    1.9853   -1.2127 F         1 <0>        -0.1659
      7 O1          3.1081    2.0657   -0.3690 O.2       1 <0>        -0.2751
      8 O2         -7.8440   -2.3354   -0.3435 O.2       1 <0>        -0.2708
      9 N1         -6.3937   -0.5599   -0.0859 N.am      1 <0>        -0.3082
     10 N2          3.2915   -0.0028    0.7377 N.am      1 <0>        -0.2847
     11 C1         -1.0387    1.3900    0.7895 C.3       1 <0>        -0.0318
     12 C2          0.1678    0.7320    0.0851 C.3       1 <0>        -0.0179
     13 C3         -2.3750    1.0658    0.1124 C.3       1 <0>        -0.0340
     14 C4         -2.5818   -0.4882    0.1413 C.3       1 <0>        -0.0274
     15 C5         -3.9637   -0.8952   -0.4833 C.3       1 <0>         0.0078
     16 C6         -0.0158   -0.7901    0.1593 C.3       1 <0>        -0.0464
     17 C7          1.3063    1.2921    0.9663 C.3       1 <0>         0.0415
     18 C8         -1.3565   -1.2327   -0.4562 C.3       1 <0>        -0.0486
     19 C9         -0.6112    2.8463    0.9346 C.3       1 <0>        -0.0487
     20 C10        -3.5412    1.8108    0.7810 C.3       1 <0>        -0.0480
     21 C11         0.8969    2.7566    1.2305 C.3       1 <0>        -0.0411
     22 C12        -5.0626   -0.1192    0.2977 C.3       1 <0>         0.0325
     23 C13        -4.8982    1.3958    0.2161 C.3       1 <0>        -0.0334
     24 C14         0.3464    1.1651   -1.3940 C.3       1 <0>        -0.0586
     25 C15        -4.0082   -0.6061   -2.0031 C.3       1 <0>        -0.0541
     26 C16        -4.2912   -2.3723   -0.3090 C.2       1 <0>        -0.0712
     27 C17         2.6709    1.1811    0.3599 C.2       1 <0>         0.2208
     28 C18        -5.5434   -2.8308   -0.1599 C.2       1 <0>        -0.0032
     29 C19        -6.7042   -1.9005   -0.2039 C.2       1 <0>         0.2369
     30 C20         4.5796   -0.4562    0.3664 C.ar      1 <0>         0.0456
     31 C21         5.0521   -1.6723    0.8337 C.ar      1 <0>         0.0760
     32 C22         5.3468    0.3410   -0.4689 C.ar      1 <0>        -0.0283
     33 C23         6.6187   -0.0894   -0.8466 C.ar      1 <0>         0.0566
     34 C24         6.3241   -2.1025    0.4562 C.ar      1 <0>        -0.0478
     35 C25         4.2349   -2.5413    1.7342 C.3       1 <0>         0.4191
     36 C26         7.1073   -1.3112   -0.3841 C.ar      1 <0>        -0.0495
     37 C27         7.4567    0.7566   -1.7447 C.3       1 <0>         0.4175
     38 H1         -1.1029    0.9894    1.8155 H         1 <0>         0.0309
     39 H2         -2.3362    1.4087   -0.9267 H         1 <0>         0.0307
     40 H3         -2.6160   -0.7835    1.2024 H         1 <0>         0.0312
     41 H4          0.0149   -1.1232    1.2049 H         1 <0>         0.0271
     42 H5          0.8061   -1.3047   -0.3526 H         1 <0>         0.0271
     43 H6          1.3055    0.7798    1.9397 H         1 <0>         0.0400
     44 H7         -1.3163   -1.0918   -1.5407 H         1 <0>         0.0268
     45 H8         -1.4527   -2.3108   -0.2909 H         1 <0>         0.0268
     46 H9         -1.1448    3.3546    1.7441 H         1 <0>         0.0268
     47 H10        -0.7900    3.4114    0.0131 H         1 <0>         0.0268
     48 H11        -3.4210    2.8926    0.6521 H         1 <0>         0.0269
     49 H12        -3.5302    1.6194    1.8618 H         1 <0>         0.0269
     50 H13         1.4369    3.4910    0.6239 H         1 <0>         0.0273
     51 H14         1.0939    3.0112    2.2788 H         1 <0>         0.0273
     52 H15        -4.9873   -0.3911    1.3625 H         1 <0>         0.0507
     53 H16        -5.6911    1.8905    0.7909 H         1 <0>         0.0283
     54 H17        -5.0067    1.7482   -0.8159 H         1 <0>         0.0283
     55 H18         1.1895    0.6364   -1.8539 H         1 <0>         0.0235
     56 H19        -0.5294    0.9429   -2.0090 H         1 <0>         0.0235
     57 H20         0.5398    2.2375   -1.4972 H         1 <0>         0.0235
     58 H21        -3.3123   -1.2482   -2.5546 H         1 <0>         0.0239
     59 H22        -5.0032   -0.7930   -2.4241 H         1 <0>         0.0239
     60 H23        -3.7563    0.4299   -2.2439 H         1 <0>         0.0239
     61 H24        -3.4875   -3.1004   -0.3449 H         1 <0>         0.0580
     62 H25        -7.1550    0.1122   -0.0896 H         1 <0>         0.1493
     63 H26        -5.7482   -3.8919   -0.0771 H         1 <0>         0.0666
     64 H27         2.7686   -0.6276    1.3461 H         1 <0>         0.1548
     65 H28         5.0358    1.2961   -0.8651 H         1 <0>         0.0642
     66 H29         6.7249   -3.0504    0.8046 H         1 <0>         0.0624
     67 H30         8.0955   -1.6634   -0.6672 H         1 <0>         0.0623
@<TRIPOS>BOND
     1    1   35 1
     2    2   35 1
     3    3   35 1
     4    4   37 1
     5    5   37 1
     6    6   37 1
     7    7   27 2
     8    8   29 2
     9    9   22 1
    10    9   29 am
    11    9   62 1
    12   10   27 am
    13   10   30 1
    14   10   64 1
    15   11   12 1
    16   11   13 1
    17   11   19 1
    18   11   38 1
    19   12   16 1
    20   12   17 1
    21   12   24 1
    22   13   14 1
    23   13   20 1
    24   13   39 1
    25   14   15 1
    26   14   18 1
    27   14   40 1
    28   15   22 1
    29   15   25 1
    30   15   26 1
    31   16   18 1
    32   16   41 1
    33   16   42 1
    34   17   21 1
    35   17   27 1
    36   17   43 1
    37   18   44 1
    38   18   45 1
    39   19   21 1
    40   19   46 1
    41   19   47 1
    42   20   23 1
    43   20   48 1
    44   20   49 1
    45   21   50 1
    46   21   51 1
    47   22   23 1
    48   22   52 1
    49   23   53 1
    50   23   54 1
    51   24   55 1
    52   24   56 1
    53   24   57 1
    54   25   58 1
    55   25   59 1
    56   25   60 1
    57   26   28 2
    58   26   61 1
    59   28   29 1
    60   28   63 1
    61   30   31 ar
    62   30   32 ar
    63   31   34 ar
    64   31   35 1
    65   32   33 ar
    66   32   65 1
    67   33   36 ar
    68   33   37 1
    69   34   36 ar
    70   34   66 1
    71   36   67 1
