@<TRIPOS>MOLECULE
DB01380
   59    62     0     0     0
SMALL
USER_CHARGES

@<TRIPOS>ATOM
      1 O1         -2.5516   -1.0039    1.8228 O.3       1 <0>        -0.3804
      2 O2          0.6048    2.3548   -0.6982 O.2       1 <0>        -0.2971
      3 O3         -4.4713   -1.7303   -0.7095 O.2       1 <0>        -0.2907
      4 O4         -5.5262    0.6985    0.0575 O.3       1 <0>        -0.4570
      5 O5          6.7834    1.6625    1.5642 O.2       1 <0>        -0.2927
      6 O6         -5.3061    2.9926    0.2194 O.2       1 <0>        -0.2512
      7 C1         -0.0711   -1.5052    0.3581 C.3       1 <0>        -0.0286
      8 C2         -1.1977   -0.5892   -0.1787 C.3       1 <0>         0.0135
      9 C3          1.3181   -1.1227   -0.1723 C.3       1 <0>        -0.0270
     10 C4          1.6436    0.3427    0.2460 C.3       1 <0>         0.0297
     11 C5         -2.4263   -1.3056    0.4359 C.3       1 <0>         0.1329
     12 C6          3.0695    0.8167   -0.2228 C.3       1 <0>        -0.0005
     13 C7         -0.5904   -2.9131    0.0752 C.3       1 <0>        -0.0463
     14 C8         -0.9209    0.8318    0.3218 C.3       1 <0>         0.0148
     15 C9         -2.1169   -2.8075    0.2616 C.3       1 <0>        -0.0161
     16 C10         2.3962   -2.0732    0.3631 C.3       1 <0>        -0.0456
     17 C11         0.4662    1.2731   -0.1300 C.2       1 <0>         0.1381
     18 C12        -1.2926   -0.5736   -1.7298 C.3       1 <0>        -0.0559
     19 C13         4.1101   -0.2424    0.1779 C.2       1 <0>        -0.0597
     20 C14         3.7763   -1.6797   -0.1448 C.3       1 <0>        -0.0305
     21 C15         3.4008    2.1649    0.4838 C.3       1 <0>        -0.0363
     22 C16        -3.7454   -0.9075   -0.1535 C.2       1 <0>         0.2022
     23 C17         3.1529    0.9982   -1.7555 C.3       1 <0>        -0.0552
     24 C18         4.8728    2.5423    0.4217 C.3       1 <0>         0.0107
     25 C19         5.2862    0.0397    0.7634 C.2       1 <0>        -0.0194
     26 C20         5.7206    1.4365    0.9893 C.2       1 <0>         0.1561
     27 C21        -4.1243    0.5526   -0.0242 C.3       1 <0>         0.1530
     28 C22        -5.9948    1.9822    0.1779 C.2       1 <0>         0.3043
     29 C23        -7.4917    1.9833    0.2530 C.3       1 <0>         0.0332
     30 H1         -0.0285   -1.4059    1.4552 H         1 <0>         0.0310
     31 H2          1.3156   -1.2053   -1.2647 H         1 <0>         0.0311
     32 H3          1.6534    0.3630    1.3481 H         1 <0>         0.0389
     33 H4         -0.1597   -3.6513    0.7598 H         1 <0>         0.0269
     34 H5         -0.3512   -3.2319   -0.9455 H         1 <0>         0.0269
     35 H6         -0.9458    0.9061    1.4144 H         1 <0>         0.0348
     36 H7         -1.6417    1.5511   -0.0766 H         1 <0>         0.0348
     37 H8         -2.6013   -3.2526   -0.6143 H         1 <0>         0.0297
     38 H9         -2.4256   -3.3883    1.1383 H         1 <0>         0.0297
     39 H10         2.1867   -3.1016    0.0468 H         1 <0>         0.0271
     40 H11         2.3912   -2.0708    1.4610 H         1 <0>         0.0271
     41 H12        -0.3751   -0.2082   -2.2009 H         1 <0>         0.0236
     42 H13        -1.4937   -1.5652   -2.1470 H         1 <0>         0.0236
     43 H14        -2.0930    0.0882   -2.0748 H         1 <0>         0.0236
     44 H15         3.8218   -1.8206   -1.2316 H         1 <0>         0.0310
     45 H16         4.5161   -2.3671    0.2839 H         1 <0>         0.0310
     46 H17         3.1110    2.1032    1.5423 H         1 <0>         0.0278
     47 H18         2.8217    2.9889    0.0539 H         1 <0>         0.0278
     48 H19         4.1835    1.1816   -2.0820 H         1 <0>         0.0238
     49 H20         2.8030    0.1143   -2.2978 H         1 <0>         0.0238
     50 H21         2.5577    1.8482   -2.1016 H         1 <0>         0.0238
     51 H22        -3.2269   -1.5915    2.2033 H         1 <0>         0.2108
     52 H23         5.0366    3.4466    1.0183 H         1 <0>         0.0345
     53 H24         5.1985    2.7466   -0.6030 H         1 <0>         0.0345
     54 H25         5.9892   -0.7385    1.0416 H         1 <0>         0.0652
     55 H26        -3.7535    1.0872   -0.9033 H         1 <0>         0.0779
     56 H27        -3.6880    0.9727    0.8863 H         1 <0>         0.0779
     57 H28        -7.8185    1.4169    1.1285 H         1 <0>         0.0342
     58 H29        -7.9081    1.5535   -0.6615 H         1 <0>         0.0342
     59 H30        -7.8497    3.0122    0.3494 H         1 <0>         0.0342
@<TRIPOS>BOND
     1    1   11 1
     2    1   51 1
     3    2   17 2
     4    3   22 2
     5    4   27 1
     6    4   28 1
     7    5   26 2
     8    6   28 2
     9    7    8 1
    10    7    9 1
    11    7   13 1
    12    7   30 1
    13    8   11 1
    14    8   14 1
    15    8   18 1
    16    9   10 1
    17    9   16 1
    18    9   31 1
    19   10   12 1
    20   10   17 1
    21   10   32 1
    22   11   15 1
    23   11   22 1
    24   12   19 1
    25   12   21 1
    26   12   23 1
    27   13   15 1
    28   13   33 1
    29   13   34 1
    30   14   17 1
    31   14   35 1
    32   14   36 1
    33   15   37 1
    34   15   38 1
    35   16   20 1
    36   16   39 1
    37   16   40 1
    38   18   41 1
    39   18   42 1
    40   18   43 1
    41   19   20 1
    42   19   25 2
    43   20   44 1
    44   20   45 1
    45   21   24 1
    46   21   46 1
    47   21   47 1
    48   22   27 1
    49   23   48 1
    50   23   49 1
    51   23   50 1
    52   24   26 1
    53   24   52 1
    54   24   53 1
    55   25   26 1
    56   25   54 1
    57   27   55 1
    58   27   56 1
    59   28   29 1
    60   29   57 1
    61   29   58 1
    62   29   59 1
