@<TRIPOS>MOLECULE
DB01393
   45    46     0     0     0
SMALL
USER_CHARGES

@<TRIPOS>ATOM
      1 Cl1        -4.7284    4.8878   -0.1458 Cl        1 <0>        -0.0835
      2 O1          3.5874   -0.1703    1.0047 O.3       1 <0>        -0.4751
      3 O2          5.4767    2.5555   -0.3552 O.3       1 <0>        -0.4779
      4 O3          5.8484    1.1188    1.3524 O.2       1 <0>        -0.2465
      5 O4         -4.3879   -1.7265    0.4674 O.2       1 <0>        -0.2702
      6 N1         -2.4087   -1.3678   -0.6877 N.am      1 <0>        -0.3110
      7 C1          3.8124    0.8596    0.0416 C.3       1 <0>         0.2003
      8 C2         -1.1502   -3.1785    0.4236 C.3       1 <0>        -0.0120
      9 C3          0.1018   -2.3834    0.5778 C.ar      1 <0>        -0.0457
     10 C4         -2.0078   -2.7466   -0.7723 C.3       1 <0>         0.0159
     11 C5          2.4388   -0.8991    0.8638 C.ar      1 <0>         0.1221
     12 C6          3.8941    0.2088   -1.3360 C.3       1 <0>        -0.0145
     13 C7          2.6653    1.8605    0.1433 C.3       1 <0>        -0.0145
     14 C8          1.2734   -2.7981   -0.0555 C.ar      1 <0>        -0.0551
     15 C9          0.1016   -1.2248    1.3544 C.ar      1 <0>        -0.0551
     16 C10         2.4446   -2.0542    0.0878 C.ar      1 <0>        -0.0196
     17 C11         1.2728   -0.4808    1.4977 C.ar      1 <0>        -0.0196
     18 C12         5.1389    1.5000    0.4289 C.2       1 <0>         0.3485
     19 C13        -3.5840   -0.9658   -0.0650 C.2       1 <0>         0.2441
     20 C14        -3.8683    0.4922   -0.0854 C.ar      1 <0>         0.0368
     21 C15        -5.1798    0.9154   -0.0223 C.ar      1 <0>        -0.0483
     22 C16        -2.8127    1.3765   -0.1657 C.ar      1 <0>        -0.0483
     23 C17        -5.4476    2.2842   -0.0404 C.ar      1 <0>        -0.0427
     24 C18        -3.0804    2.7454   -0.1838 C.ar      1 <0>        -0.0427
     25 C19        -4.3978    3.1993   -0.1213 C.ar      1 <0>         0.0410
     26 H1         -1.7424   -3.1064    1.3458 H         1 <0>         0.0328
     27 H2         -0.9021   -4.2425    0.3192 H         1 <0>         0.0328
     28 H3         -1.4479   -2.8622   -1.7071 H         1 <0>         0.0465
     29 H4         -2.8994   -3.3802   -0.8336 H         1 <0>         0.0465
     30 H5          4.6048   -0.6254   -1.3436 H         1 <0>         0.0273
     31 H6          4.2442    0.9312   -2.0830 H         1 <0>         0.0273
     32 H7          2.9280   -0.1568   -1.6977 H         1 <0>         0.0273
     33 H8          2.8775    2.7562   -0.4524 H         1 <0>         0.0273
     34 H9          1.7159    1.4671   -0.2335 H         1 <0>         0.0273
     35 H10         2.5150    2.1935    1.1767 H         1 <0>         0.0273
     36 H11         1.2875   -3.7007   -0.6607 H         1 <0>         0.0621
     37 H12        -0.8016   -0.8936    1.8602 H         1 <0>         0.0621
     38 H13         3.3546   -2.4031   -0.3911 H         1 <0>         0.0654
     39 H14         1.2629    0.4051    2.1257 H         1 <0>         0.0654
     40 H15        -1.8199   -0.6958   -1.1672 H         1 <0>         0.1490
     41 H16        -6.0085    0.2163    0.0358 H         1 <0>         0.0625
     42 H17        -1.7731    1.0670   -0.1815 H         1 <0>         0.0625
     43 H18         6.3333    2.9511   -0.0872 H         1 <0>         0.2952
     44 H19        -6.4791    2.6236    0.0076 H         1 <0>         0.0632
     45 H20        -2.2522    3.4473   -0.2396 H         1 <0>         0.0632
@<TRIPOS>BOND
     1    1   25 1
     2    2    7 1
     3    2   11 1
     4    3   18 1
     5    3   43 1
     6    4   18 2
     7    5   19 2
     8    6   10 1
     9    6   19 am
    10    6   40 1
    11    7   12 1
    12    7   13 1
    13    7   18 1
    14    8    9 1
    15    8   10 1
    16    8   26 1
    17    8   27 1
    18    9   14 ar
    19    9   15 ar
    20   10   28 1
    21   10   29 1
    22   11   16 ar
    23   11   17 ar
    24   12   30 1
    25   12   31 1
    26   12   32 1
    27   13   33 1
    28   13   34 1
    29   13   35 1
    30   14   16 ar
    31   14   36 1
    32   15   17 ar
    33   15   37 1
    34   16   38 1
    35   17   39 1
    36   19   20 1
    37   20   21 ar
    38   20   22 ar
    39   21   23 ar
    40   21   41 1
    41   22   24 ar
    42   22   42 1
    43   23   25 ar
    44   23   44 1
    45   24   25 ar
    46   24   45 1
