@<TRIPOS>MOLECULE
DB01595
   32    34     0     0     0
SMALL
USER_CHARGES

@<TRIPOS>ATOM
      1 O1         -1.9036    4.0699   -0.9560 O.2       1 <0>        -0.2734
      2 O2         -2.5415   -4.2754    0.7860 O.3       1 <0>        -0.5760
      3 O3         -0.5705   -3.7753    1.6135 O.2       1 <0>         0.0414
      4 N1         -2.2739    1.8113   -0.8878 N.am      1 <0>        -0.2834
      5 N2          0.3446    2.2468    0.5521 N.2       1 <0>        -0.2734
      6 N3         -1.6132   -3.4567    0.9923 N.pl3     1 <0>         0.0796
      7 C1         -0.8308    0.1023    0.2071 C.ar      1 <0>         0.0281
      8 C2         -2.0178    0.5027   -0.4282 C.ar      1 <0>         0.0431
      9 C3          0.3719    0.9874    0.2764 C.2       1 <0>         0.0752
     10 C4          1.7095    0.4014   -0.0265 C.ar      1 <0>         0.0006
     11 C5         -0.7160   -1.2091    0.6974 C.ar      1 <0>         0.0265
     12 C6         -3.0250   -0.4472   -0.6557 C.ar      1 <0>        -0.0334
     13 C7         -0.9238    2.8705    0.8605 C.3       1 <0>         0.1167
     14 C8         -1.7466   -2.1288    0.5073 C.ar      1 <0>         0.2739
     15 C9         -1.7142    2.9787   -0.4163 C.2       1 <0>         0.2386
     16 C10        -2.8930   -1.7532   -0.1844 C.ar      1 <0>         0.0174
     17 C11         1.8080   -0.6573   -0.9202 C.ar      1 <0>        -0.0526
     18 C12         2.8407    0.9214    0.5888 C.ar      1 <0>        -0.0526
     19 C13         3.0590   -1.2055   -1.2031 C.ar      1 <0>        -0.0611
     20 C14         4.0919    0.3733    0.3059 C.ar      1 <0>        -0.0611
     21 C15         4.2010   -0.6901   -0.5901 C.ar      1 <0>        -0.0617
     22 H1          0.1869   -1.5004    1.2300 H         1 <0>         0.0692
     23 H2         -2.9956    1.9103   -1.5975 H         1 <0>         0.1549
     24 H3         -3.9399   -0.1688   -1.1748 H         1 <0>         0.0638
     25 H4         -0.7410    3.8810    1.2421 H         1 <0>         0.0605
     26 H5         -1.4877    2.3414    1.6371 H         1 <0>         0.0605
     27 H6         -3.7102   -2.4460   -0.3681 H         1 <0>         0.0686
     28 H7          0.9488   -1.0578   -1.4498 H         1 <0>         0.0624
     29 H8          2.7799    1.7429    1.2973 H         1 <0>         0.0624
     30 H9          3.1456   -2.0274   -1.9080 H         1 <0>         0.0618
     31 H10         4.9812    0.7734    0.7843 H         1 <0>         0.0618
     32 H11         5.1753   -1.1157   -0.8117 H         1 <0>         0.0618
@<TRIPOS>BOND
     1    1   15 2
     2    2    6 1
     3    3    6 2
     4    4    8 1
     5    4   15 am
     6    4   23 1
     7    5    9 2
     8    5   13 1
     9    6   14 1
    10    7    8 ar
    11    7    9 1
    12    7   11 ar
    13    8   12 ar
    14    9   10 1
    15   10   17 ar
    16   10   18 ar
    17   11   14 ar
    18   11   22 1
    19   12   16 ar
    20   12   24 1
    21   13   15 1
    22   13   25 1
    23   13   26 1
    24   14   16 ar
    25   16   27 1
    26   17   19 ar
    27   17   28 1
    28   18   20 ar
    29   18   29 1
    30   19   21 ar
    31   19   30 1
    32   20   21 ar
    33   20   31 1
    34   21   32 1
