@<TRIPOS>MOLECULE
DB01437
   31    32     0     0     0
SMALL
USER_CHARGES

@<TRIPOS>ATOM
      1 O1          1.3313   -0.1968    2.3956 O.2       1 <0>        -0.2744
      2 O2          1.6268   -3.6763   -0.5925 O.2       1 <0>        -0.2754
      3 N1          1.4724   -1.8956    0.8602 N.am      1 <0>        -0.2557
      4 C1          0.5390    0.2974    0.1498 C.3       1 <0>         0.0724
      5 C2          1.1465   -0.1327   -1.2045 C.3       1 <0>        -0.0267
      6 C3          0.9744    1.7526    0.4407 C.3       1 <0>        -0.0378
      7 C4         -0.9989    0.2394    0.1412 C.ar      1 <0>        -0.0324
      8 C5          0.8659   -1.5984   -1.4983 C.3       1 <0>         0.0256
      9 C6          1.1621   -0.5902    1.2397 C.2       1 <0>         0.2297
     10 C7          1.3694   -2.4896   -0.3921 C.2       1 <0>         0.2193
     11 C8          2.4828    1.8847    0.4306 C.3       1 <0>        -0.0640
     12 C9         -1.6639   -0.5621    1.0631 C.ar      1 <0>        -0.0576
     13 C10        -1.7120    0.9886   -0.7889 C.ar      1 <0>        -0.0576
     14 C11        -3.0578   -0.6148    1.0549 C.ar      1 <0>        -0.0615
     15 C12        -3.1059    0.9361   -0.7969 C.ar      1 <0>        -0.0615
     16 C13        -3.7788    0.1344    0.1250 C.ar      1 <0>        -0.0617
     17 H1          2.2378   -0.0283   -1.2048 H         1 <0>         0.0283
     18 H2          0.7738    0.4825   -2.0316 H         1 <0>         0.0283
     19 H3          0.5931    2.0756    1.4187 H         1 <0>         0.0276
     20 H4          0.5647    2.4565   -0.2936 H         1 <0>         0.0276
     21 H5          1.3732   -1.8856   -2.4264 H         1 <0>         0.0359
     22 H6         -0.2043   -1.7862   -1.6324 H         1 <0>         0.0359
     23 H7          1.8322   -2.4924    1.6002 H         1 <0>         0.1575
     24 H8          3.0116    1.1333    1.0214 H         1 <0>         0.0230
     25 H9          2.8875    1.8792   -0.5862 H         1 <0>         0.0230
     26 H10         2.7550    2.8603    0.8511 H         1 <0>         0.0230
     27 H11        -1.1513   -1.1624    1.8063 H         1 <0>         0.0621
     28 H12        -1.2126    1.6178   -1.5195 H         1 <0>         0.0621
     29 H13        -3.5826   -1.2388    1.7724 H         1 <0>         0.0618
     30 H14        -3.6674    1.5185   -1.5216 H         1 <0>         0.0618
     31 H15        -4.8640    0.0932    0.1186 H         1 <0>         0.0618
@<TRIPOS>BOND
     1    1    9 2
     2    2   10 2
     3    3    9 am
     4    3   10 am
     5    3   23 1
     6    4    5 1
     7    4    6 1
     8    4    7 1
     9    4    9 1
    10    5    8 1
    11    5   17 1
    12    5   18 1
    13    6   11 1
    14    6   19 1
    15    6   20 1
    16    7   12 ar
    17    7   13 ar
    18    8   10 1
    19    8   21 1
    20    8   22 1
    21   11   24 1
    22   11   25 1
    23   11   26 1
    24   12   14 ar
    25   12   27 1
    26   13   15 ar
    27   13   28 1
    28   14   16 ar
    29   14   29 1
    30   15   16 ar
    31   15   30 1
    32   16   31 1
