@<TRIPOS>MOLECULE
DB01324
   38    39     0     0     0
SMALL
USER_CHARGES

@<TRIPOS>ATOM
      1 Cl1        -3.5116   -3.4301    0.3359 Cl        1 <0>        -0.0815
      2 S1         -0.9795    2.1233   -1.0702 S.o2      1 <0>         0.0641
      3 S2          3.6066   -0.6958   -0.6569 S.3       1 <0>        -0.1487
      4 S3         -5.3971   -0.9022   -0.3713 S.o2      1 <0>         0.0574
      5 F1          7.2964   -1.3724    0.6412 F         1 <0>        -0.1698
      6 F2          5.6631   -2.7664    0.2253 F         1 <0>        -0.1698
      7 F3          6.4627   -1.5128   -1.3662 F         1 <0>        -0.1698
      8 O1         -1.7994    3.1507   -0.4588 O.2       1 <0>        -0.1527
      9 O2         -0.7449    2.1038   -2.5013 O.2       1 <0>        -0.1527
     10 O3         -5.9110    0.1433   -1.2415 O.2       1 <0>        -0.1532
     11 O4         -5.7673   -2.2894   -0.6026 O.2       1 <0>        -0.1532
     12 N1          0.5376    2.0120   -0.2294 N.pl3     1 <0>        -0.1586
     13 N2          0.5549   -0.4524   -0.3145 N.pl3     1 <0>        -0.3250
     14 N3         -5.7504   -0.4992    1.2498 N.pl3     1 <0>        -0.2035
     15 C1          1.2865    0.7664   -0.6272 C.3       1 <0>         0.1029
     16 C2         -1.6745    0.5475   -0.6727 C.ar      1 <0>         0.1282
     17 C3         -0.8296   -0.5351   -0.3751 C.ar      1 <0>         0.0565
     18 C4          2.6780    0.7146   -0.0041 C.3       1 <0>         0.0273
     19 C5          0.4889    2.2515    1.2440 C.3       1 <0>         0.0110
     20 C6         -3.0669    0.4317   -0.6690 C.ar      1 <0>        -0.0057
     21 C7         -1.4489   -1.7557   -0.0614 C.ar      1 <0>        -0.0186
     22 C8         -3.6482   -0.7944   -0.3620 C.ar      1 <0>         0.1252
     23 C9         -2.8411   -1.8876   -0.0584 C.ar      1 <0>         0.0691
     24 C10         5.1436   -0.4536    0.2641 C.3       1 <0>         0.0892
     25 C11         6.1488   -1.5371   -0.0505 C.3       1 <0>         0.3988
     26 H1          1.4164    0.8209   -1.7173 H         1 <0>         0.0692
     27 H2          1.0788   -1.3137   -0.2042 H         1 <0>         0.1477
     28 H3          2.6187    0.5960    1.0830 H         1 <0>         0.0408
     29 H4          3.2246    1.6384   -0.2215 H         1 <0>         0.0408
     30 H5         -0.1645    3.0975    1.4744 H         1 <0>         0.0409
     31 H6          1.4832    2.5284    1.6062 H         1 <0>         0.0409
     32 H7          0.1374    1.3698    1.7855 H         1 <0>         0.0409
     33 H8         -3.6810    1.2961   -0.9041 H         1 <0>         0.0658
     34 H9         -0.8286   -2.6160    0.1883 H         1 <0>         0.0652
     35 H10         5.5664    0.5231    0.0094 H         1 <0>         0.0464
     36 H11         4.9242   -0.4648    1.3362 H         1 <0>         0.0464
     37 H12        -6.1862    0.4134    1.4308 H         1 <0>         0.1442
     38 H13        -6.0863   -1.2495    1.8659 H         1 <0>         0.1442
@<TRIPOS>BOND
     1    1   23 1
     2    2    8 2
     3    2    9 2
     4    2   12 1
     5    2   16 1
     6    3   18 1
     7    3   24 1
     8    4   10 2
     9    4   11 2
    10    4   14 1
    11    4   22 1
    12    5   25 1
    13    6   25 1
    14    7   25 1
    15   12   15 1
    16   12   19 1
    17   13   15 1
    18   13   17 1
    19   13   27 1
    20   14   37 1
    21   14   38 1
    22   15   18 1
    23   15   26 1
    24   16   17 ar
    25   16   20 ar
    26   17   21 ar
    27   18   28 1
    28   18   29 1
    29   19   30 1
    30   19   31 1
    31   19   32 1
    32   20   22 ar
    33   20   33 1
    34   21   23 ar
    35   21   34 1
    36   22   23 ar
    37   24   25 1
    38   24   35 1
    39   24   36 1
