@<TRIPOS>MOLECULE
DB01128
   43    44     0     0     0
SMALL
USER_CHARGES

@<TRIPOS>ATOM
      1 S1          2.3634    0.5667   -1.0658 S.o2      1 <0>         0.0001
      2 F1          6.0642   -3.7557    0.3964 F         1 <0>        -0.2055
      3 F2         -4.1087   -2.3011    2.4092 F         1 <0>        -0.1659
      4 F3         -6.0848   -1.6941    1.7359 F         1 <0>        -0.1659
      5 F4         -5.0077   -3.2624    0.6708 F         1 <0>        -0.1659
      6 O1          1.4839    3.4081   -0.4017 O.3       1 <0>        -0.3780
      7 O2          3.1425    1.5797   -1.7538 O.2       1 <0>        -0.1693
      8 O3          1.2061   -0.0307   -1.7067 O.2       1 <0>        -0.1693
      9 O4         -0.7456    2.5040   -1.4465 O.2       1 <0>        -0.2723
     10 N1         -1.1926    1.0372    0.3227 N.am      1 <0>        -0.2831
     11 N2         -7.0996   -1.7100   -1.5400 N.1       1 <0>        -0.1909
     12 C1          0.8470    2.3818    0.3593 C.3       1 <0>         0.1583
     13 C2          1.8367    1.2204    0.4912 C.3       1 <0>         0.1078
     14 C3          0.5326    2.9679    1.7398 C.3       1 <0>        -0.0259
     15 C4         -0.4523    1.9894   -0.3693 C.2       1 <0>         0.2503
     16 C5          3.4767   -0.7334   -0.6256 C.ar      1 <0>         0.0885
     17 C6         -2.4275    0.4584   -0.0569 C.ar      1 <0>         0.0341
     18 C7          2.9822   -2.0128   -0.4400 C.ar      1 <0>        -0.0342
     19 C8          4.8228   -0.4485   -0.4745 C.ar      1 <0>        -0.0342
     20 C9         -3.0175   -0.4829    0.7698 C.ar      1 <0>        -0.0276
     21 C10         3.8607   -3.0392   -0.0927 C.ar      1 <0>        -0.0247
     22 C11         5.7014   -1.4746   -0.1273 C.ar      1 <0>        -0.0247
     23 C12        -3.0184    0.8459   -1.2480 C.ar      1 <0>        -0.0392
     24 C13        -4.2339   -1.0532    0.3946 C.ar      1 <0>         0.0739
     25 C14         5.2203   -2.7699    0.0637 C.ar      1 <0>         0.1235
     26 C15        -4.8424   -0.6741   -0.8019 C.ar      1 <0>         0.0635
     27 C16        -4.2348    0.2755   -1.6231 C.ar      1 <0>        -0.0421
     28 C17        -4.8551   -2.0692    1.2989 C.3       1 <0>         0.4187
     29 C18        -6.0893   -1.2463   -1.2097 C.1       1 <0>         0.0997
     30 H1          2.7484    1.5611    0.9964 H         1 <0>         0.0538
     31 H2          1.4092    0.3912    1.0643 H         1 <0>         0.0538
     32 H3          1.4285    3.4161    2.1849 H         1 <0>         0.0263
     33 H4          0.1437    2.2186    2.4360 H         1 <0>         0.0263
     34 H5         -0.2097    3.7706    1.6580 H         1 <0>         0.0263
     35 H6         -0.8183    0.6967    1.2045 H         1 <0>         0.1549
     36 H7          1.6227    3.0841   -1.3070 H         1 <0>         0.2109
     37 H8          1.9262   -2.2400   -0.5501 H         1 <0>         0.0637
     38 H9          5.2153    0.5544   -0.6108 H         1 <0>         0.0637
     39 H10        -2.5315   -0.7689    1.6988 H         1 <0>         0.0642
     40 H11         3.4864   -4.0475    0.0575 H         1 <0>         0.0647
     41 H12         6.7599   -1.2653   -0.0037 H         1 <0>         0.0647
     42 H13        -2.6142    1.5710   -1.9380 H         1 <0>         0.0636
     43 H14        -4.6970    0.5809   -2.5592 H         1 <0>         0.0631
@<TRIPOS>BOND
     1    1    7 2
     2    1    8 2
     3    1   13 1
     4    1   16 1
     5    2   25 1
     6    3   28 1
     7    4   28 1
     8    5   28 1
     9    6   12 1
    10    6   36 1
    11    9   15 2
    12   10   15 am
    13   10   17 1
    14   10   35 1
    15   11   29 3
    16   12   13 1
    17   12   14 1
    18   12   15 1
    19   13   30 1
    20   13   31 1
    21   14   32 1
    22   14   33 1
    23   14   34 1
    24   16   18 ar
    25   16   19 ar
    26   17   20 ar
    27   17   23 ar
    28   18   21 ar
    29   18   37 1
    30   19   22 ar
    31   19   38 1
    32   20   24 ar
    33   20   39 1
    34   21   25 ar
    35   21   40 1
    36   22   25 ar
    37   22   41 1
    38   23   27 ar
    39   23   42 1
    40   24   26 ar
    41   24   28 1
    42   26   27 ar
    43   26   29 1
    44   27   43 1
