@<TRIPOS>MOLECULE
DB01406
   52    56     0     0     0
SMALL
USER_CHARGES

@<TRIPOS>ATOM
      1 O1          4.7700   -1.3142   -0.4637 O.3       1 <0>        -0.3760
      2 O2         -5.9948    0.3618    1.1237 O.3       1 <0>        -0.3550
      3 N1         -6.5093   -0.9260    1.0370 N.2       1 <0>        -0.0858
      4 C1          1.7542    0.6243    0.3323 C.3       1 <0>        -0.0289
      5 C2          2.3949   -0.6029   -0.3536 C.3       1 <0>         0.0111
      6 C3          0.3395    0.9300   -0.1780 C.3       1 <0>        -0.0337
      7 C4         -0.5704   -0.3114    0.0794 C.3       1 <0>        -0.0285
      8 C5         -2.0669   -0.0874   -0.3645 C.3       1 <0>        -0.0035
      9 C6          1.5184   -1.8311   -0.0457 C.3       1 <0>        -0.0435
     10 C7          3.8185   -0.5722    0.2853 C.3       1 <0>         0.1317
     11 C8          0.0583   -1.6158   -0.4850 C.3       1 <0>        -0.0485
     12 C9          2.8273    1.7041    0.2073 C.3       1 <0>        -0.0458
     13 C10        -0.2448    2.1671    0.5166 C.3       1 <0>        -0.0459
     14 C11         4.1662    0.9413    0.2917 C.3       1 <0>        -0.0118
     15 C12        -2.5745    1.2790    0.1875 C.2       1 <0>        -0.0595
     16 C13         2.5097   -0.4569   -1.8994 C.3       1 <0>        -0.0558
     17 C14        -1.6539    2.4638    0.0224 C.3       1 <0>        -0.0305
     18 C15        -2.9193   -1.3182    0.1480 C.3       1 <0>        -0.0132
     19 C16        -2.2101   -0.0273   -1.9055 C.3       1 <0>        -0.0553
     20 C17         3.8499   -1.0931    1.6666 C.1       1 <0>        -0.0704
     21 C18        -3.7955    1.4609    0.7340 C.2       1 <0>        -0.0166
     22 C19        -4.3086   -0.9428    0.4998 C.2       1 <0>         0.0195
     23 C20        -4.6684    0.3541    0.7925 C.2       1 <0>         0.1633
     24 C21        -5.4812   -1.6925    0.6647 C.2       1 <0>         0.0738
     25 C22         3.8754   -1.5170    2.7895 C.1       1 <0>        -0.1163
     26 H1          1.6529    0.4162    1.4095 H         1 <0>         0.0310
     27 H2          0.3804    1.1420   -1.2520 H         1 <0>         0.0307
     28 H3         -0.5925   -0.4435    1.1737 H         1 <0>         0.0312
     29 H4          1.5057   -2.0467    1.0289 H         1 <0>         0.0272
     30 H5          1.9231   -2.7245   -0.5362 H         1 <0>         0.0272
     31 H6          0.0098   -1.6215   -1.5780 H         1 <0>         0.0268
     32 H7         -0.5202   -2.4852   -0.1527 H         1 <0>         0.0268
     33 H8          2.7478    2.4491    1.0058 H         1 <0>         0.0269
     34 H9          2.7532    2.2355   -0.7482 H         1 <0>         0.0269
     35 H10         0.3853    3.0428    0.3219 H         1 <0>         0.0271
     36 H11        -0.2571    2.0203    1.6044 H         1 <0>         0.0271
     37 H12         4.7971    1.2081   -0.5650 H         1 <0>         0.0303
     38 H13         4.7207    1.2381    1.1901 H         1 <0>         0.0303
     39 H14         3.1546    0.3773   -2.1931 H         1 <0>         0.0236
     40 H15         2.9406   -1.3647   -2.3379 H         1 <0>         0.0236
     41 H16         1.5465   -0.2954   -2.3895 H         1 <0>         0.0236
     42 H17        -1.6196    2.7445   -1.0373 H         1 <0>         0.0310
     43 H18        -2.0361    3.3403    0.5602 H         1 <0>         0.0310
     44 H19        -2.4668   -1.7314    1.0596 H         1 <0>         0.0323
     45 H20        -2.9235   -2.1268   -0.5929 H         1 <0>         0.0323
     46 H21        -1.5689    0.7378   -2.3542 H         1 <0>         0.0238
     47 H22        -1.9558   -0.9824   -2.3762 H         1 <0>         0.0238
     48 H23        -3.2419    0.2031   -2.1975 H         1 <0>         0.0238
     49 H24        -4.1386    2.4302    1.0772 H         1 <0>         0.0655
     50 H25         5.6566   -1.0935   -0.1299 H         1 <0>         0.2114
     51 H26        -5.6351   -2.7544    0.5408 H         1 <0>         0.0867
     52 H27         3.8971   -1.8929    3.7856 H         1 <0>         0.1229
@<TRIPOS>BOND
     1    1   10 1
     2    1   50 1
     3    2    3 1
     4    2   23 1
     5    3   24 2
     6    4    5 1
     7    4    6 1
     8    4   12 1
     9    4   26 1
    10    5    9 1
    11    5   10 1
    12    5   16 1
    13    6    7 1
    14    6   13 1
    15    6   27 1
    16    7    8 1
    17    7   11 1
    18    7   28 1
    19    8   15 1
    20    8   18 1
    21    8   19 1
    22    9   11 1
    23    9   29 1
    24    9   30 1
    25   10   14 1
    26   10   20 1
    27   11   31 1
    28   11   32 1
    29   12   14 1
    30   12   33 1
    31   12   34 1
    32   13   17 1
    33   13   35 1
    34   13   36 1
    35   14   37 1
    36   14   38 1
    37   15   17 1
    38   15   21 2
    39   16   39 1
    40   16   40 1
    41   16   41 1
    42   17   42 1
    43   17   43 1
    44   18   22 1
    45   18   44 1
    46   18   45 1
    47   19   46 1
    48   19   47 1
    49   19   48 1
    50   20   25 3
    51   21   23 1
    52   21   49 1
    53   22   23 2
    54   22   24 1
    55   24   51 1
    56   25   52 1
