@<TRIPOS>MOLECULE
DB01082
   79    81     0     0     0
SMALL
USER_CHARGES

@<TRIPOS>ATOM
      1 O1          0.4640    0.6323    0.2225 O.3       1 <0>        -0.3391
      2 O2          0.0052    2.8864   -0.3269 O.3       1 <0>        -0.3423
      3 O3         -2.5813    0.4230   -0.3022 O.3       1 <0>        -0.3380
      4 O4         -2.8685   -0.5354    1.8431 O.3       1 <0>        -0.3415
      5 O5         -2.8613    2.9488   -1.3315 O.3       1 <0>        -0.3763
      6 O6          2.4171    2.5272    1.1014 O.3       1 <0>        -0.3864
      7 O7          3.9497   -2.0619   -1.6912 O.3       1 <0>        -0.3845
      8 O8          5.0269    1.4229    1.4101 O.3       1 <0>        -0.3855
      9 O9         -4.5055   -3.5758   -0.4271 O.3       1 <0>        -0.3874
     10 O10        -1.9599   -3.9508    0.8079 O.3       1 <0>        -0.3865
     11 O11        -4.5642    3.5218    0.6204 O.2       1 <0>        -0.2978
     12 O12        -0.6234   -0.8262    3.3880 O.3       1 <0>        -0.3924
     13 N1          1.2997   -0.9311   -2.0703 N.2       1 <0>        -0.1049
     14 N2          5.9254   -0.1229   -0.8841 N.2       1 <0>        -0.1049
     15 N3         -5.0373   -0.7649   -1.1704 N.3       1 <0>        -0.3099
     16 N4          0.4264   -2.8696   -0.9525 N.pl3     1 <0>        -0.2892
     17 N5         -0.2932   -2.2952   -3.0375 N.pl3     1 <0>        -0.2892
     18 N6          6.9030   -0.6716    1.2405 N.pl3     1 <0>        -0.2892
     19 N7          8.2107   -0.2609   -0.5805 N.pl3     1 <0>        -0.2892
     20 C1         -1.7896    1.4586    0.2498 C.3       1 <0>         0.1499
     21 C2          1.7754    0.7106   -0.3437 C.3       1 <0>         0.1293
     22 C3         -2.3483    2.8434   -0.0174 C.3       1 <0>         0.1770
     23 C4         -0.4307    1.5225   -0.4284 C.3       1 <0>         0.1895
     24 C5          2.1598   -0.6592   -0.9050 C.3       1 <0>         0.1727
     25 C6          2.7468    1.1823    0.7396 C.3       1 <0>         0.1141
     26 C7          3.6175   -0.7084   -1.3706 C.3       1 <0>         0.1337
     27 C8         -1.0903    3.6939    0.1525 C.3       1 <0>         0.0969
     28 C9          4.2030    1.1383    0.2763 C.3       1 <0>         0.1228
     29 C10         4.5840   -0.2329   -0.2837 C.3       1 <0>         0.1724
     30 C11        -3.5145   -0.0914    0.6462 C.3       1 <0>         0.1780
     31 C12        -4.4048   -1.2042    0.0735 C.3       1 <0>         0.0876
     32 C13        -3.6097   -2.4986   -0.1439 C.3       1 <0>         0.1035
     33 C14        -2.8296   -2.8655    1.1237 C.3       1 <0>         0.1109
     34 C15        -2.0212   -1.6710    1.6442 C.3       1 <0>         0.1129
     35 C16        -1.0870    5.0162   -0.5976 C.3       1 <0>        -0.0354
     36 C17        -3.4172    3.2429    0.9542 C.2       1 <0>         0.1570
     37 C18        -1.3547   -1.9694    2.9845 C.3       1 <0>         0.0730
     38 C19         0.5392   -1.9729   -1.9917 C.2       1 <0>         0.3769
     39 C20        -5.7810    0.4674   -0.9621 C.3       1 <0>        -0.0153
     40 C21         6.9262   -0.3439   -0.0969 C.2       1 <0>         0.3769
     41 H1         -1.6225    1.3196    1.3263 H         1 <0>         0.0682
     42 H2          1.7989    1.4373   -1.1696 H         1 <0>         0.0661
     43 H3         -0.5085    1.2538   -1.4897 H         1 <0>         0.0938
     44 H4          2.0527   -1.3819   -0.0941 H         1 <0>         0.0784
     45 H5          2.6097    0.5881    1.6514 H         1 <0>         0.0648
     46 H6          3.7522   -0.1129   -2.2830 H         1 <0>         0.0667
     47 H7         -0.8902    3.8873    1.2142 H         1 <0>         0.0628
     48 H8          4.3958    1.9296   -0.4582 H         1 <0>         0.0657
     49 H9          4.5659   -0.9927    0.5075 H         1 <0>         0.0784
     50 H10        -4.1569    0.7281    0.9799 H         1 <0>         0.0927
     51 H11        -5.1919   -1.4338    0.8068 H         1 <0>         0.0537
     52 H12        -2.9204   -2.4114   -0.9934 H         1 <0>         0.0637
     53 H13        -3.5363   -3.2164    1.8868 H         1 <0>         0.0646
     54 H14        -1.2345   -1.4051    0.9288 H         1 <0>         0.0647
     55 H15        -0.1541    5.5564   -0.4022 H         1 <0>         0.0256
     56 H16        -1.1297    4.8626   -1.6811 H         1 <0>         0.0256
     57 H17        -1.9255    5.6492   -0.2932 H         1 <0>         0.0256
     58 H18        -3.1261    3.2605    2.0187 H         1 <0>         0.1059
     59 H19        -3.3947    2.1593   -1.5158 H         1 <0>         0.2109
     60 H20         2.5063    3.0815    0.3074 H         1 <0>         0.2100
     61 H21        -5.6773   -1.4886   -1.4956 H         1 <0>         0.1221
     62 H22         3.3462   -2.3497   -2.3971 H         1 <0>         0.2101
     63 H23         4.7823    0.8104    2.1243 H         1 <0>         0.2100
     64 H24        -2.1017   -2.1703    3.7589 H         1 <0>         0.0584
     65 H25        -0.6668   -2.8175    2.9283 H         1 <0>         0.0584
     66 H26        -4.9300   -3.3865   -1.2805 H         1 <0>         0.2100
     67 H27        -1.6128   -4.3063    1.6429 H         1 <0>         0.2100
     68 H28        -6.3953    0.6567   -1.8494 H         1 <0>         0.0388
     69 H29        -5.1446    1.3432   -0.8513 H         1 <0>         0.0388
     70 H30        -6.4657    0.3987   -0.1099 H         1 <0>         0.0388
     71 H31         0.0552   -0.6549    2.7127 H         1 <0>         0.2095
     72 H32        -0.2260   -3.6441   -1.0236 H         1 <0>         0.2546
     73 H33         0.9415   -2.8219   -0.0838 H         1 <0>         0.2546
     74 H34        -0.3235   -1.7264   -3.8767 H         1 <0>         0.2546
     75 H35        -0.9041   -3.1037   -2.9999 H         1 <0>         0.2546
     76 H36         6.0519   -0.7761    1.7779 H         1 <0>         0.2546
     77 H37         7.7691   -0.8201    1.7479 H         1 <0>         0.2546
     78 H38         9.0139   -0.4288    0.0153 H         1 <0>         0.2546
     79 H39         8.3906   -0.0272   -1.5510 H         1 <0>         0.2546
@<TRIPOS>BOND
     1    1   21 1
     2    1   23 1
     3    2   23 1
     4    2   27 1
     5    3   20 1
     6    3   30 1
     7    4   30 1
     8    4   34 1
     9    5   22 1
    10    5   59 1
    11    6   25 1
    12    6   60 1
    13    7   26 1
    14    7   62 1
    15    8   28 1
    16    8   63 1
    17    9   32 1
    18    9   66 1
    19   10   33 1
    20   10   67 1
    21   11   36 2
    22   12   37 1
    23   12   71 1
    24   13   24 1
    25   13   38 2
    26   14   29 1
    27   14   40 2
    28   15   31 1
    29   15   39 1
    30   15   61 1
    31   16   38 1
    32   16   72 1
    33   16   73 1
    34   17   38 1
    35   17   74 1
    36   17   75 1
    37   18   40 1
    38   18   76 1
    39   18   77 1
    40   19   40 1
    41   19   78 1
    42   19   79 1
    43   20   22 1
    44   20   23 1
    45   20   41 1
    46   21   24 1
    47   21   25 1
    48   21   42 1
    49   22   27 1
    50   22   36 1
    51   23   43 1
    52   24   26 1
    53   24   44 1
    54   25   28 1
    55   25   45 1
    56   26   29 1
    57   26   46 1
    58   27   35 1
    59   27   47 1
    60   28   29 1
    61   28   48 1
    62   29   49 1
    63   30   31 1
    64   30   50 1
    65   31   32 1
    66   31   51 1
    67   32   33 1
    68   32   52 1
    69   33   34 1
    70   33   53 1
    71   34   37 1
    72   34   54 1
    73   35   55 1
    74   35   56 1
    75   35   57 1
    76   36   58 1
    77   37   64 1
    78   37   65 1
    79   39   68 1
    80   39   69 1
    81   39   70 1
