@<TRIPOS>MOLECULE
DB01418
   41    43     0     0     0
SMALL
USER_CHARGES

@<TRIPOS>ATOM
      1 O1          2.4894    0.9170    2.0492 O.3       1 <0>        -0.4217
      2 O2          1.2512   -1.0282   -1.4434 O.3       1 <0>        -0.5055
      3 O3          0.4334    0.6206    2.9763 O.2       1 <0>        -0.2447
      4 O4         -2.7634   -2.5389    1.4460 O.2       1 <0>        -0.2977
      5 O5         -5.0716    3.9401   -0.1553 O.3       1 <0>        -0.5760
      6 O6         -4.1537    3.8688   -2.1481 O.2       1 <0>         0.0414
      7 N1         -4.2381    3.4641   -0.9634 N.pl3     1 <0>         0.0796
      8 C1         -0.7082   -0.6872    0.8112 C.3       1 <0>         0.0262
      9 C2          0.7258   -0.2320    0.7729 C.2       1 <0>         0.0866
     10 C3         -0.8837   -1.9968    0.0174 C.3       1 <0>         0.0167
     11 C4         -1.6450    0.4151    0.3407 C.ar      1 <0>        -0.0388
     12 C5          1.5736   -0.3984   -0.2602 C.2       1 <0>         0.1381
     13 C6          2.9502    0.0973   -0.1911 C.ar      1 <0>         0.0593
     14 C7          1.1795    0.4585    2.0154 C.2       1 <0>         0.3446
     15 C8         -1.5694    0.8809   -0.9719 C.ar      1 <0>        -0.0516
     16 C9         -2.5796    0.9600    1.2212 C.ar      1 <0>        -0.0516
     17 C10        -2.0604   -2.8432    0.4838 C.2       1 <0>         0.1312
     18 C11         3.3684    0.7437    0.9667 C.ar      1 <0>         0.1426
     19 C12        -2.4283    1.8912   -1.4041 C.ar      1 <0>         0.0159
     20 C13        -3.4386    1.9704    0.7892 C.ar      1 <0>         0.0159
     21 C14         3.8768   -0.0434   -1.2334 C.ar      1 <0>        -0.0475
     22 C15        -3.3630    2.4358   -0.5236 C.ar      1 <0>         0.2732
     23 C16        -2.2991   -4.1228   -0.2754 C.3       1 <0>        -0.0060
     24 C17         4.6620    1.2460    1.1138 C.ar      1 <0>        -0.0185
     25 C18         5.1778    0.4547   -1.1029 C.ar      1 <0>        -0.0609
     26 C19         5.5695    1.0989    0.0697 C.ar      1 <0>        -0.0582
     27 H1         -0.9564   -0.9323    1.8525 H         1 <0>         0.0405
     28 H2         -0.0097   -2.6480    0.1527 H         1 <0>         0.0351
     29 H3         -1.0346   -1.8231   -1.0535 H         1 <0>         0.0351
     30 H4         -0.8592    0.4745   -1.6840 H         1 <0>         0.0623
     31 H5         -2.6506    0.6075    2.2467 H         1 <0>         0.0623
     32 H6         -2.3422    2.2282   -2.4340 H         1 <0>         0.0685
     33 H7         -4.1541    2.3710    1.5026 H         1 <0>         0.0685
     34 H8          3.6202   -0.5221   -2.1743 H         1 <0>         0.0626
     35 H9         -2.4643   -3.8970   -1.3318 H         1 <0>         0.0306
     36 H10        -3.1869   -4.6252    0.1186 H         1 <0>         0.0306
     37 H11        -1.4363   -4.7832   -0.1607 H         1 <0>         0.0306
     38 H12         4.9626    1.7470    2.0291 H         1 <0>         0.0654
     39 H13         5.8842    0.3420   -1.9206 H         1 <0>         0.0618
     40 H14         1.9923   -1.5964   -1.7107 H         1 <0>         0.2922
     41 H15         6.5798    1.4849    0.1669 H         1 <0>         0.0619
@<TRIPOS>BOND
     1    1   14 1
     2    1   18 1
     3    2   12 1
     4    2   40 1
     5    3   14 2
     6    4   17 2
     7    5    7 1
     8    6    7 2
     9    7   22 1
    10    8    9 1
    11    8   10 1
    12    8   11 1
    13    8   27 1
    14    9   12 2
    15    9   14 1
    16   10   17 1
    17   10   28 1
    18   10   29 1
    19   11   15 ar
    20   11   16 ar
    21   12   13 1
    22   13   18 ar
    23   13   21 ar
    24   15   19 ar
    25   15   30 1
    26   16   20 ar
    27   16   31 1
    28   17   23 1
    29   18   24 ar
    30   19   22 ar
    31   19   32 1
    32   20   22 ar
    33   20   33 1
    34   21   25 ar
    35   21   34 1
    36   23   35 1
    37   23   36 1
    38   23   37 1
    39   24   26 ar
    40   24   38 1
    41   25   26 ar
    42   25   39 1
    43   26   41 1
