@<TRIPOS>MOLECULE
DB01067
   58    60     0     0     0
SMALL
USER_CHARGES

@<TRIPOS>ATOM
      1 S1          0.7392   -4.0766    1.6283 S.o2      1 <0>         0.0756
      2 O1         -1.0616   -1.6502    2.3469 O.2       1 <0>        -0.2512
      3 O2          0.6677   -3.8504    3.0590 O.2       1 <0>        -0.1499
      4 O3          0.9815   -5.4072    1.1054 O.2       1 <0>        -0.1499
      5 O4          1.7882    1.0159   -2.3206 O.2       1 <0>        -0.2685
      6 N1         -2.4636   -1.9815    0.5391 N.am      1 <0>        -0.2953
      7 N2         -0.6521   -3.4219    0.8812 N.am      1 <0>        -0.1693
      8 N3          3.5992    1.4690   -0.9439 N.am      1 <0>        -0.3097
      9 N4          2.0648    3.2424    0.3963 N.ar      1 <0>        -0.2471
     10 N5         -0.6162    3.7163   -0.2776 N.ar      1 <0>        -0.2564
     11 C1         -3.3516   -0.8698    0.7970 C.3       1 <0>         0.0246
     12 C2         -4.7786   -1.1859    0.3362 C.3       1 <0>        -0.0345
     13 C3         -2.8293    0.4150    0.1453 C.3       1 <0>        -0.0345
     14 C4         -4.9112   -1.2028   -1.1866 C.3       1 <0>        -0.0514
     15 C5         -2.9651    0.3956   -1.3773 C.3       1 <0>        -0.0514
     16 C6         -4.3957    0.0900   -1.8111 C.3       1 <0>        -0.0529
     17 C7         -1.3820   -2.2813    1.3442 C.2       1 <0>         0.3191
     18 C8          2.0015   -3.0302    0.9682 C.ar      1 <0>         0.1086
     19 C9          3.9956   -1.3795   -0.0716 C.ar      1 <0>        -0.0458
     20 C10         2.6431   -3.3757   -0.2211 C.ar      1 <0>        -0.0348
     21 C11         2.3569   -1.8593    1.6378 C.ar      1 <0>        -0.0348
     22 C12         5.0606   -0.4960   -0.6279 C.3       1 <0>        -0.0120
     23 C13         3.6400   -2.5504   -0.7411 C.ar      1 <0>        -0.0567
     24 C14         3.3538   -1.0339    1.1178 C.ar      1 <0>        -0.0567
     25 C15         4.5286    0.5779   -1.5848 C.3       1 <0>         0.0159
     26 C16         2.2853    1.6165   -1.3716 C.2       1 <0>         0.2639
     27 C17         1.4597    2.5965   -0.6200 C.ar      1 <0>         0.1433
     28 C18         0.1429    2.8295   -0.9511 C.ar      1 <0>         0.0583
     29 C19        -0.0112    4.3620    0.7390 C.ar      1 <0>         0.0563
     30 C20         1.3057    4.1294    1.0700 C.ar      1 <0>         0.0494
     31 C21        -0.8197    5.3496    1.5059 C.3       1 <0>        -0.0209
     32 H1         -3.3717   -0.7154    1.8832 H         1 <0>         0.0499
     33 H2         -5.4602   -0.4266    0.7406 H         1 <0>         0.0283
     34 H3         -5.1037   -2.1523    0.7399 H         1 <0>         0.0283
     35 H4         -3.3959    1.2692    0.5376 H         1 <0>         0.0283
     36 H5         -1.7795    0.5827    0.4137 H         1 <0>         0.0283
     37 H6         -5.9635   -1.3449   -1.4585 H         1 <0>         0.0266
     38 H7         -4.3628   -2.0557   -1.6030 H         1 <0>         0.0266
     39 H8         -2.6631    1.3662   -1.7850 H         1 <0>         0.0266
     40 H9         -2.2846   -0.3529   -1.8007 H         1 <0>         0.0266
     41 H10        -5.0496    0.9211   -1.5192 H         1 <0>         0.0265
     42 H11        -4.4424    0.0166   -2.9035 H         1 <0>         0.0265
     43 H12        -2.6078   -2.5424   -0.2946 H         1 <0>         0.1506
     44 H13        -1.0125   -3.9162    0.0552 H         1 <0>         0.1781
     45 H14         5.6013   -0.0147    0.1979 H         1 <0>         0.0328
     46 H15         5.8097   -1.1034   -1.1520 H         1 <0>         0.0328
     47 H16         2.3771   -4.2786   -0.7633 H         1 <0>         0.0637
     48 H17         1.8680   -1.5693    2.5633 H         1 <0>         0.0637
     49 H18         4.1297   -2.8283   -1.6707 H         1 <0>         0.0621
     50 H19         3.6205   -0.1247    1.6504 H         1 <0>         0.0621
     51 H20         4.0646    0.1105   -2.4604 H         1 <0>         0.0465
     52 H21         5.3630    1.1917   -1.9404 H         1 <0>         0.0465
     53 H22         3.9349    2.0349   -0.1695 H         1 <0>         0.1491
     54 H23        -0.3565    2.3220   -1.7673 H         1 <0>         0.0853
     55 H24         1.7993    4.6442    1.8857 H         1 <0>         0.0848
     56 H25        -0.8789    5.0576    2.5591 H         1 <0>         0.0293
     57 H26        -1.8405    5.4102    1.1144 H         1 <0>         0.0293
     58 H27        -0.3714    6.3456    1.4357 H         1 <0>         0.0293
@<TRIPOS>BOND
     1    1    3 2
     2    1    4 2
     3    1    7 1
     4    1   18 1
     5    2   17 2
     6    5   26 2
     7    6   11 1
     8    6   17 am
     9    6   43 1
    10    7   17 am
    11    7   44 1
    12    8   25 1
    13    8   26 am
    14    8   53 1
    15    9   27 ar
    16    9   30 ar
    17   10   28 ar
    18   10   29 ar
    19   11   12 1
    20   11   13 1
    21   11   32 1
    22   12   14 1
    23   12   33 1
    24   12   34 1
    25   13   15 1
    26   13   35 1
    27   13   36 1
    28   14   16 1
    29   14   37 1
    30   14   38 1
    31   15   16 1
    32   15   39 1
    33   15   40 1
    34   16   41 1
    35   16   42 1
    36   18   20 ar
    37   18   21 ar
    38   19   22 1
    39   19   23 ar
    40   19   24 ar
    41   20   23 ar
    42   20   47 1
    43   21   24 ar
    44   21   48 1
    45   22   25 1
    46   22   45 1
    47   22   46 1
    48   23   49 1
    49   24   50 1
    50   25   51 1
    51   25   52 1
    52   26   27 1
    53   27   28 ar
    54   28   54 1
    55   29   30 ar
    56   29   31 1
    57   30   55 1
    58   31   56 1
    59   31   57 1
    60   31   58 1
