@<TRIPOS>MOLECULE
DB01043
   34    36     0     0     0
SMALL
USER_CHARGES

@<TRIPOS>ATOM
      1 N1         -0.0357   -2.7643   -1.2448 N.3       1 <0>        -0.3246
      2 C1          1.2806    0.6635   -0.1514 C.3       1 <0>        -0.0296
      3 C2         -1.2663    0.6872   -0.1499 C.3       1 <0>        -0.0296
      4 C3         -0.0129   -1.4876   -0.5316 C.3       1 <0>         0.0177
      5 C4         -0.0016   -0.4092    1.7498 C.3       1 <0>        -0.0384
      6 C5          0.0142    1.4689   -0.5251 C.3       1 <0>        -0.0421
      7 C6          1.2515   -0.6862   -0.9072 C.3       1 <0>        -0.0294
      8 C7         -1.2635   -0.6624   -0.9059 C.3       1 <0>        -0.0294
      9 C8          1.2592    0.3823    1.3680 C.3       1 <0>        -0.0446
     10 C9         -1.2482    0.4055    1.3696 C.3       1 <0>        -0.0446
     11 C10        -0.0143   -1.7451    0.9889 C.3       1 <0>        -0.0319
     12 C11         2.5390    1.4528   -0.5255 C.3       1 <0>        -0.0595
     13 C12        -2.5104    1.4994   -0.5223 C.3       1 <0>        -0.0595
     14 H1         -0.0028   -0.6008    2.8288 H         1 <0>         0.0302
     15 H2          0.0235    2.4389   -0.0097 H         1 <0>         0.0276
     16 H3          0.0155    1.6888   -1.6013 H         1 <0>         0.0276
     17 H4          1.2772   -0.5076   -1.9911 H         1 <0>         0.0288
     18 H5          2.1528   -1.2666   -0.6659 H         1 <0>         0.0288
     19 H6         -2.1755   -1.2253   -0.6630 H         1 <0>         0.0288
     20 H7         -1.2873   -0.4831   -1.9897 H         1 <0>         0.0288
     21 H8          1.2861    1.3255    1.9291 H         1 <0>         0.0273
     22 H9          2.1526   -0.1837    1.6620 H         1 <0>         0.0273
     23 H10        -2.1515   -0.1440    1.6646 H         1 <0>         0.0273
     24 H11        -1.2570    1.3488    1.9307 H         1 <0>         0.0273
     25 H12         0.8611   -2.3408    1.2801 H         1 <0>         0.0286
     26 H13        -0.9004   -2.3241    1.2817 H         1 <0>         0.0286
     27 H14         3.4462    0.8956   -0.2670 H         1 <0>         0.0235
     28 H15         2.5700    1.6609   -1.6008 H         1 <0>         0.0235
     29 H16         2.5749    2.4125    0.0015 H         1 <0>         0.0235
     30 H17        -2.5280    2.4597    0.0049 H         1 <0>         0.0235
     31 H18        -2.5390    1.7082   -1.5974 H         1 <0>         0.0235
     32 H19        -3.4275    0.9592   -0.2626 H         1 <0>         0.0235
     33 H20        -0.8561   -3.3023   -0.9683 H         1 <0>         0.1187
     34 H21         0.7735   -3.3243   -0.9792 H         1 <0>         0.1187
@<TRIPOS>BOND
     1    1    4 1
     2    1   33 1
     3    1   34 1
     4    2    6 1
     5    2    7 1
     6    2    9 1
     7    2   12 1
     8    3    6 1
     9    3    8 1
    10    3   10 1
    11    3   13 1
    12    4    7 1
    13    4    8 1
    14    4   11 1
    15    5    9 1
    16    5   10 1
    17    5   11 1
    18    5   14 1
    19    6   15 1
    20    6   16 1
    21    7   17 1
    22    7   18 1
    23    8   19 1
    24    8   20 1
    25    9   21 1
    26    9   22 1
    27   10   23 1
    28   10   24 1
    29   11   25 1
    30   11   26 1
    31   12   27 1
    32   12   28 1
    33   12   29 1
    34   13   30 1
    35   13   31 1
    36   13   32 1
