@<TRIPOS>MOLECULE
DB01362
   60    60     0     0     0
SMALL
USER_CHARGES

@<TRIPOS>ATOM
      1 I1          2.9949    1.9857   -0.4131 I         1 <0>        -0.0411
      2 I2         -2.7760    0.9630    1.2917 I         1 <0>        -0.0411
      3 I3          0.7472   -3.6908   -0.5010 I         1 <0>        -0.0422
      4 O1         -2.3924    4.1773    0.5827 O.3       1 <0>        -0.3880
      5 O2         -3.7360    4.5721   -1.8213 O.3       1 <0>        -0.3924
      6 O3          0.1867    4.2947    2.1194 O.2       1 <0>        -0.2756
      7 O4         -5.4278   -1.3524   -0.9098 O.3       1 <0>        -0.3880
      8 O5          6.2086   -0.2570    0.9502 O.3       1 <0>        -0.3880
      9 O6         -1.9958   -2.5969    1.6655 O.2       1 <0>        -0.2701
     10 O7          3.0563   -1.2968   -2.0400 O.2       1 <0>        -0.2701
     11 O8         -7.4620   -2.5557    0.5580 O.3       1 <0>        -0.3924
     12 O9          8.4022   -0.3568   -0.7578 O.3       1 <0>        -0.3924
     13 N1         -0.0156    2.4835    0.6213 N.am      1 <0>        -0.2671
     14 N2         -2.7127   -2.2690   -0.5152 N.am      1 <0>        -0.3088
     15 N3          3.7772   -1.5932    0.1448 N.am      1 <0>        -0.3088
     16 C1         -0.4031    3.3652   -0.5189 C.3       1 <0>         0.0480
     17 C2          0.1534    1.1138    0.3717 C.ar      1 <0>         0.0641
     18 C3         -1.9127    3.5761   -0.6204 C.3       1 <0>         0.0943
     19 C4          1.3798    0.6349   -0.0892 C.ar      1 <0>         0.0489
     20 C5         -0.9049    0.2305    0.5844 C.ar      1 <0>         0.0489
     21 C6          1.5478   -0.7274   -0.3373 C.ar      1 <0>         0.0654
     22 C7         -0.7368   -1.1318    0.3363 C.ar      1 <0>         0.0654
     23 C8          0.4895   -1.6107   -0.1245 C.ar      1 <0>         0.0397
     24 C9         -2.3165    4.4588   -1.7970 C.3       1 <0>         0.0716
     25 C10         0.2538    3.0835    1.8955 C.2       1 <0>         0.2168
     26 C11        -1.8477   -2.0587    0.5594 C.2       1 <0>         0.2462
     27 C12         2.8536   -1.2365   -0.8301 C.2       1 <0>         0.2462
     28 C13        -3.8674   -3.1354   -0.4440 C.3       1 <0>         0.0401
     29 C14         5.0929   -2.0797   -0.1739 C.3       1 <0>         0.0401
     30 C15        -5.1310   -2.4056    0.0078 C.3       1 <0>         0.0936
     31 C16         6.1280   -0.9622   -0.2890 C.3       1 <0>         0.0936
     32 C17         0.6072    2.1707    3.0474 C.3       1 <0>         0.0127
     33 C18        -6.3481   -3.3196    0.1057 C.3       1 <0>         0.0716
     34 C19         7.5207   -1.4700   -0.6480 C.3       1 <0>         0.0716
     35 H1         -0.0216    2.9352   -1.4521 H         1 <0>         0.0495
     36 H2          0.0915    4.3325   -0.3701 H         1 <0>         0.0495
     37 H3         -2.4337    2.6378   -0.7955 H         1 <0>         0.0632
     38 H4         -1.9052    5.4675   -1.6854 H         1 <0>         0.0583
     39 H5         -1.9801    4.0318   -2.7469 H         1 <0>         0.0583
     40 H6         -3.6461   -3.9685    0.2318 H         1 <0>         0.0488
     41 H7         -4.0055   -3.5381   -1.4537 H         1 <0>         0.0488
     42 H8          5.3678   -2.7641    0.6364 H         1 <0>         0.0488
     43 H9          5.0474   -2.6532   -1.1062 H         1 <0>         0.0488
     44 H10        -4.9663   -1.9291    0.9815 H         1 <0>         0.0632
     45 H11         5.8136   -0.2291   -1.0413 H         1 <0>         0.0632
     46 H12        -2.5357   -1.7843   -1.3905 H         1 <0>         0.1491
     47 H13         3.5248   -1.4987    1.1245 H         1 <0>         0.1491
     48 H14         0.9075    2.7740    3.9098 H         1 <0>         0.0323
     49 H15        -0.2554    1.5674    3.3351 H         1 <0>         0.0323
     50 H16         1.4455    1.5205    2.7874 H         1 <0>         0.0323
     51 H17        -2.2707    3.5317    1.2988 H         1 <0>         0.2099
     52 H18        -6.1720   -4.1370    0.8114 H         1 <0>         0.0583
     53 H19        -6.6051   -3.7326   -0.8751 H         1 <0>         0.0583
     54 H20         7.9105   -2.1263    0.1369 H         1 <0>         0.0583
     55 H21         7.5112   -2.0068   -1.6015 H         1 <0>         0.0583
     56 H22        -3.9630    5.1395   -2.5778 H         1 <0>         0.2095
     57 H23        -4.6479   -0.7727   -0.9490 H         1 <0>         0.2099
     58 H24         5.3166    0.0711    1.1564 H         1 <0>         0.2099
     59 H25        -8.2205   -3.1621    0.6097 H         1 <0>         0.2095
     60 H26         9.2791   -0.7100   -0.9859 H         1 <0>         0.2095
@<TRIPOS>BOND
     1    1   19 1
     2    2   20 1
     3    3   23 1
     4    4   18 1
     5    4   51 1
     6    5   24 1
     7    5   56 1
     8    6   25 2
     9    7   30 1
    10    7   57 1
    11    8   31 1
    12    8   58 1
    13    9   26 2
    14   10   27 2
    15   11   33 1
    16   11   59 1
    17   12   34 1
    18   12   60 1
    19   13   16 1
    20   13   17 1
    21   13   25 am
    22   14   26 am
    23   14   28 1
    24   14   46 1
    25   15   27 am
    26   15   29 1
    27   15   47 1
    28   16   18 1
    29   16   35 1
    30   16   36 1
    31   17   19 ar
    32   17   20 ar
    33   18   24 1
    34   18   37 1
    35   19   21 ar
    36   20   22 ar
    37   21   23 ar
    38   21   27 1
    39   22   23 ar
    40   22   26 1
    41   24   38 1
    42   24   39 1
    43   25   32 1
    44   28   30 1
    45   28   40 1
    46   28   41 1
    47   29   31 1
    48   29   42 1
    49   29   43 1
    50   30   33 1
    51   30   44 1
    52   31   34 1
    53   31   45 1
    54   32   48 1
    55   32   49 1
    56   32   50 1
    57   33   52 1
    58   33   53 1
    59   34   54 1
    60   34   55 1
