@<TRIPOS>MOLECULE
DB01619
   39    42     0     0     0
SMALL
USER_CHARGES

@<TRIPOS>ATOM
      1 N1          2.8528    1.0156   -0.1579 N.3       1 <0>        -0.3011
      2 C1         -0.7720   -0.0297    0.8829 C.3       1 <0>         0.0325
      3 C2          0.6799    0.0006    0.4433 C.2       1 <0>        -0.0401
      4 C3          1.0834   -1.1578   -0.1055 C.2       1 <0>        -0.0374
      5 C4          1.6093    1.1581    0.6316 C.3       1 <0>         0.0212
      6 C5         -1.1455   -1.4401    0.4804 C.ar      1 <0>        -0.0285
      7 C6          2.4723   -1.4140   -0.5623 C.3       1 <0>        -0.0143
      8 C7         -0.0375   -2.0824   -0.1015 C.ar      1 <0>        -0.0177
      9 C8          3.4321   -0.3329   -0.0243 C.3       1 <0>         0.0029
     10 C9         -1.6330    1.0433    0.2526 C.ar      1 <0>        -0.0359
     11 C10        -2.3558   -2.0965    0.6347 C.ar      1 <0>        -0.0571
     12 C11        -0.1271   -3.3888   -0.5505 C.ar      1 <0>        -0.0540
     13 C12         3.8218    2.0419    0.2222 C.3       1 <0>        -0.0124
     14 C13        -2.7301    1.5554    0.9462 C.ar      1 <0>        -0.0577
     15 C14        -1.3308    1.5213   -1.0230 C.ar      1 <0>        -0.0577
     16 C15        -2.4514   -3.4140    0.1825 C.ar      1 <0>        -0.0614
     17 C16        -1.3476   -4.0539   -0.4059 C.ar      1 <0>        -0.0612
     18 C17        -3.5242    2.5440    0.3649 C.ar      1 <0>        -0.0615
     19 C18        -2.1246    2.5101   -1.6042 C.ar      1 <0>        -0.0615
     20 C19        -3.2213    3.0214   -0.9103 C.ar      1 <0>        -0.0617
     21 H1         -0.7985    0.0537    1.9775 H         1 <0>         0.0443
     22 H2          1.1167    2.0875    0.3271 H         1 <0>         0.0473
     23 H3          1.8366    1.2416    1.7024 H         1 <0>         0.0473
     24 H4          2.8194   -2.3958   -0.2213 H         1 <0>         0.0326
     25 H5          2.4941   -1.4159   -1.6589 H         1 <0>         0.0326
     26 H6          3.6740   -0.5427    1.0267 H         1 <0>         0.0430
     27 H7          4.3693   -0.4011   -0.5904 H         1 <0>         0.0430
     28 H8         -3.2095   -1.6095    1.0926 H         1 <0>         0.0621
     29 H9          0.7203   -3.8937   -1.0022 H         1 <0>         0.0624
     30 H10         4.7122    1.9842   -0.4135 H         1 <0>         0.0391
     31 H11         4.1376    1.9458    1.2672 H         1 <0>         0.0391
     32 H12         3.3983    3.0424    0.0797 H         1 <0>         0.0391
     33 H13        -2.9772    1.1910    1.9397 H         1 <0>         0.0621
     34 H14        -0.4987    1.1333   -1.6030 H         1 <0>         0.0621
     35 H15        -3.3893   -3.9530    0.2879 H         1 <0>         0.0618
     36 H16        -1.4449   -5.0802   -0.7497 H         1 <0>         0.0618
     37 H17        -4.3785    2.9417    0.9048 H         1 <0>         0.0618
     38 H18        -1.8921    2.8786   -2.5992 H         1 <0>         0.0618
     39 H19        -3.8403    3.7902   -1.3634 H         1 <0>         0.0618
@<TRIPOS>BOND
     1    1    5 1
     2    1    9 1
     3    1   13 1
     4    2    3 1
     5    2    6 1
     6    2   10 1
     7    2   21 1
     8    3    4 2
     9    3    5 1
    10    4    7 1
    11    4    8 1
    12    5   22 1
    13    5   23 1
    14    6    8 ar
    15    6   11 ar
    16    7    9 1
    17    7   24 1
    18    7   25 1
    19    8   12 ar
    20    9   26 1
    21    9   27 1
    22   10   14 ar
    23   10   15 ar
    24   11   16 ar
    25   11   28 1
    26   12   17 ar
    27   12   29 1
    28   13   30 1
    29   13   31 1
    30   13   32 1
    31   14   18 ar
    32   14   33 1
    33   15   19 ar
    34   15   34 1
    35   16   17 ar
    36   16   35 1
    37   17   36 1
    38   18   20 ar
    39   18   37 1
    40   19   20 ar
    41   19   38 1
    42   20   39 1
