@<TRIPOS>MOLECULE
DB01153
   42    45     0     0     0
SMALL
USER_CHARGES

@<TRIPOS>ATOM
      1 Cl1        -2.2907   -2.0875    2.6671 Cl        1 <0>        -0.0831
      2 Cl2         6.1014    2.9265    0.0073 Cl        1 <0>        -0.0824
      3 Cl3        -0.0283   -5.9835   -0.2779 Cl        1 <0>        -0.0835
      4 S1          3.0821    3.1197    1.4969 S.3       1 <0>        -0.0948
      5 O1         -0.5885    0.5591    0.1968 O.3       1 <0>        -0.3655
      6 N1         -3.1772    1.5523   -0.7399 N.pl3     1 <0>        -0.3340
      7 N2         -4.4412    3.2561   -0.1337 N.2       1 <0>        -0.2441
      8 C1         -1.7508   -0.2550    0.2481 C.3       1 <0>         0.1032
      9 C2         -2.7100    0.1775   -0.8700 C.3       1 <0>         0.0546
     10 C3         -1.3284   -1.7032    0.1462 C.ar      1 <0>         0.0012
     11 C4          0.3033    0.2603    1.2669 C.3       1 <0>         0.0746
     12 C5          1.5018    1.1315    1.1761 C.2       1 <0>        -0.0071
     13 C6          2.6902    0.7892    0.4475 C.ar      1 <0>        -0.0041
     14 C7         -1.5394   -2.5847    1.1948 C.ar      1 <0>         0.0480
     15 C8         -0.7239   -2.1174   -1.0311 C.ar      1 <0>        -0.0533
     16 C9          3.6497    1.8022    0.5401 C.ar      1 <0>         0.0379
     17 C10         1.5838    2.3604    1.7867 C.2       1 <0>        -0.0178
     18 C11        -2.5759    2.6482   -1.2688 C.cat     1 <0>         0.0241
     19 C12        -4.2882    1.9522   -0.0689 C.cat     1 <0>         0.0960
     20 C13         3.0067   -0.3654   -0.3084 C.ar      1 <0>        -0.0531
     21 C14        -1.1358   -3.9136    1.0635 C.ar      1 <0>        -0.0247
     22 C15        -0.3204   -3.4461   -1.1622 C.ar      1 <0>        -0.0430
     23 C16         4.9020    1.6909   -0.0956 C.ar      1 <0>         0.0552
     24 C17        -0.5264   -4.3442   -0.1149 C.ar      1 <0>         0.0424
     25 C18        -3.3773    3.6961   -0.8809 C.2       1 <0>         0.0454
     26 C19         4.2477   -0.4787   -0.9404 C.ar      1 <0>        -0.0597
     27 C20         5.1842    0.5398   -0.8335 C.ar      1 <0>        -0.0423
     28 H1         -2.2576   -0.0262    1.1901 H         1 <0>         0.0665
     29 H2         -2.2358    0.1200   -1.8572 H         1 <0>         0.0521
     30 H3         -3.5994   -0.4642   -0.8936 H         1 <0>         0.0521
     31 H4         -0.2071    0.4376    2.2226 H         1 <0>         0.0610
     32 H5          0.6377   -0.7813    1.2614 H         1 <0>         0.0610
     33 H6         -0.5400   -1.4321   -1.8530 H         1 <0>         0.0622
     34 H7          0.8334    2.8523    2.3903 H         1 <0>         0.0697
     35 H8         -1.6667    2.6021   -1.8520 H         1 <0>         0.0825
     36 H9         -4.9458    1.2657    0.4468 H         1 <0>         0.1029
     37 H10         2.2902   -1.1765   -0.4084 H         1 <0>         0.0624
     38 H11        -1.2957   -4.6154    1.8793 H         1 <0>         0.0647
     39 H12         0.1567   -3.7668   -2.0848 H         1 <0>         0.0632
     40 H13         4.4782   -1.3697   -1.5178 H         1 <0>         0.0618
     41 H14        -3.2416    4.7450   -1.1008 H         1 <0>         0.0845
     42 H15         6.1428    0.4266   -1.3347 H         1 <0>         0.0632
@<TRIPOS>BOND
     1    1   14 1
     2    2   23 1
     3    3   24 1
     4    4   16 1
     5    4   17 1
     6    5    8 1
     7    5   11 1
     8    6    9 1
     9    6   18 1
    10    6   19 2
    11    7   19 1
    12    7   25 2
    13    8    9 1
    14    8   10 1
    15    8   28 1
    16    9   29 1
    17    9   30 1
    18   10   14 ar
    19   10   15 ar
    20   11   12 1
    21   11   31 1
    22   11   32 1
    23   12   13 1
    24   12   17 2
    25   13   16 ar
    26   13   20 ar
    27   14   21 ar
    28   15   22 ar
    29   15   33 1
    30   16   23 ar
    31   17   34 1
    32   18   25 1
    33   18   35 1
    34   19   36 1
    35   20   26 ar
    36   20   37 1
    37   21   24 ar
    38   21   38 1
    39   22   24 ar
    40   22   39 1
    41   23   27 ar
    42   25   41 1
    43   26   27 ar
    44   26   40 1
    45   27   42 1
