@<TRIPOS>MOLECULE
DB01190
   60    61     0     0     0
SMALL
USER_CHARGES

@<TRIPOS>ATOM
      1 Cl1        -1.6329   -2.9025   -1.3756 Cl        1 <0>        -0.1201
      2 S1         -5.5733   -0.9232   -1.4605 S.3       1 <0>        -0.1305
      3 O1         -3.7821   -0.7600    0.5895 O.3       1 <0>        -0.3557
      4 O2         -2.4281    1.6657    1.4158 O.3       1 <0>        -0.3865
      5 O3         -4.0016    3.3320   -0.1514 O.3       1 <0>        -0.3865
      6 O4         -6.3861    1.7417   -0.1874 O.3       1 <0>        -0.3857
      7 O5          0.6860    0.6824    1.7703 O.2       1 <0>        -0.2741
      8 N1          2.4072    2.1158    0.3383 N.3       1 <0>        -0.2943
      9 N2         -0.2272   -0.2619   -0.1514 N.am      1 <0>        -0.3072
     10 C1          4.1417    0.5839    0.3832 C.3       1 <0>        -0.0264
     11 C2          1.8462    0.9182   -0.2982 C.3       1 <0>         0.0873
     12 C3          2.9827   -0.1061   -0.3336 C.3       1 <0>        -0.0248
     13 C4          3.8560    2.0581    0.1333 C.3       1 <0>         0.0022
     14 C5         -2.6641   -0.1884   -0.1074 C.3       1 <0>         0.1081
     15 C6         -1.4053   -0.8417    0.4544 C.3       1 <0>         0.0678
     16 C7         -2.6438    1.3372    0.0411 C.3       1 <0>         0.1114
     17 C8          5.5087    0.1430   -0.1112 C.3       1 <0>        -0.0492
     18 C9         -3.9735    1.9335   -0.4261 C.3       1 <0>         0.1125
     19 C10         0.7179    0.4519    0.5643 C.2       1 <0>         0.2306
     20 C11        -5.1382    1.2566    0.2964 C.3       1 <0>         0.1188
     21 C12        -5.0662   -0.2729    0.1773 C.3       1 <0>         0.1327
     22 C13        -1.4183   -2.3790    0.3255 C.3       1 <0>         0.0520
     23 C14         1.8290    3.3546   -0.1644 C.3       1 <0>        -0.0120
     24 C15         5.7035   -1.3640    0.0478 C.3       1 <0>        -0.0556
     25 C16        -0.1561   -3.0275    0.8878 C.3       1 <0>        -0.0470
     26 C17         7.0822   -1.8009   -0.4206 C.3       1 <0>        -0.0653
     27 C18        -5.9235   -2.6189   -0.9515 C.3       1 <0>        -0.0156
     28 H1          4.0631    0.3787    1.4607 H         1 <0>         0.0314
     29 H2          1.5017    1.1182   -1.3210 H         1 <0>         0.0558
     30 H3          3.2440   -0.3151   -1.3785 H         1 <0>         0.0288
     31 H4          2.7284   -1.0559    0.1493 H         1 <0>         0.0288
     32 H5          4.1349    2.3468   -0.8884 H         1 <0>         0.0429
     33 H6          4.3910    2.6987    0.8417 H         1 <0>         0.0429
     34 H7         -2.7547   -0.4137   -1.1762 H         1 <0>         0.0642
     35 H8         -1.3676   -0.6425    1.5339 H         1 <0>         0.0539
     36 H9         -1.8251    1.7938   -0.5248 H         1 <0>         0.0647
     37 H10         6.2863    0.6782    0.4477 H         1 <0>         0.0268
     38 H11         5.6362    0.4153   -1.1666 H         1 <0>         0.0268
     39 H12        -4.0873    1.8210   -1.5105 H         1 <0>         0.0647
     40 H13        -5.0970    1.5362    1.3567 H         1 <0>         0.0655
     41 H14        -0.0950   -0.4033   -1.1487 H         1 <0>         0.1492
     42 H15        -5.7959   -0.6780    0.8877 H         1 <0>         0.0740
     43 H16        -2.2777   -2.7837    0.8714 H         1 <0>         0.0482
     44 H17         0.7498    3.3801    0.0224 H         1 <0>         0.0391
     45 H18         1.9943    3.4851   -1.2399 H         1 <0>         0.0391
     46 H19         2.2621    4.2157    0.3561 H         1 <0>         0.0391
     47 H20         5.5754   -1.6473    1.0992 H         1 <0>         0.0263
     48 H21         4.9547   -1.9158   -0.5307 H         1 <0>         0.0263
     49 H22         0.0045   -2.7234    1.9276 H         1 <0>         0.0244
     50 H23        -0.2432   -4.1197    0.8740 H         1 <0>         0.0244
     51 H24         0.7370   -2.7600    0.3136 H         1 <0>         0.0244
     52 H25        -3.0290    1.1283    1.9585 H         1 <0>         0.2100
     53 H26        -3.2430    3.7346   -0.6075 H         1 <0>         0.2100
     54 H27         7.2306   -1.5633   -1.4789 H         1 <0>         0.0230
     55 H28         7.2007   -2.8817   -0.2953 H         1 <0>         0.0230
     56 H29         7.8685   -1.3041    0.1569 H         1 <0>         0.0230
     57 H30        -7.0893    1.2748    0.2955 H         1 <0>         0.2100
     58 H31        -6.2273   -3.2003   -1.8263 H         1 <0>         0.0341
     59 H32        -6.7389   -2.6413   -0.2238 H         1 <0>         0.0341
     60 H33        -5.0327   -3.0840   -0.5217 H         1 <0>         0.0341
@<TRIPOS>BOND
     1    1   22 1
     2    2   21 1
     3    2   27 1
     4    3   14 1
     5    3   21 1
     6    4   16 1
     7    4   52 1
     8    5   18 1
     9    5   53 1
    10    6   20 1
    11    6   57 1
    12    7   19 2
    13    8   11 1
    14    8   13 1
    15    8   23 1
    16    9   15 1
    17    9   19 am
    18    9   41 1
    19   10   12 1
    20   10   13 1
    21   10   17 1
    22   10   28 1
    23   11   12 1
    24   11   19 1
    25   11   29 1
    26   12   30 1
    27   12   31 1
    28   13   32 1
    29   13   33 1
    30   14   15 1
    31   14   16 1
    32   14   34 1
    33   15   22 1
    34   15   35 1
    35   16   18 1
    36   16   36 1
    37   17   24 1
    38   17   37 1
    39   17   38 1
    40   18   20 1
    41   18   39 1
    42   20   21 1
    43   20   40 1
    44   21   42 1
    45   22   25 1
    46   22   43 1
    47   23   44 1
    48   23   45 1
    49   23   46 1
    50   24   26 1
    51   24   47 1
    52   24   48 1
    53   25   49 1
    54   25   50 1
    55   25   51 1
    56   26   54 1
    57   26   55 1
    58   26   56 1
    59   27   58 1
    60   27   59 1
    61   27   60 1
