@<TRIPOS>MOLECULE
DB01089
   80    85     0     0     0
SMALL
USER_CHARGES

@<TRIPOS>ATOM
      1 O1         -1.1336    2.9351   -1.0110 O.3       1 <0>        -0.3753
      2 O2         -2.2914    0.3620   -0.6291 O.3       1 <0>        -0.4552
      3 O3          2.9892    3.3336   -0.7055 O.3       1 <0>        -0.4677
      4 O4          1.1224    3.8668    0.5465 O.2       1 <0>        -0.2504
      5 O5         -3.0329   -0.5377   -2.6140 O.2       1 <0>        -0.2449
      6 O6         -5.7813   -0.8898    2.6315 O.3       1 <0>        -0.4913
      7 O7         -8.0847   -0.3759   -1.5358 O.3       1 <0>        -0.4913
      8 O8         -8.1519   -0.7767    1.2038 O.3       1 <0>        -0.4885
      9 N1          2.3657   -2.0380    0.2662 N.3       1 <0>        -0.2934
     10 N2          5.2464    0.2742    0.9842 N.pl3     1 <0>        -0.3564
     11 C1          1.9466    0.7238   -0.7136 C.3       1 <0>        -0.0197
     12 C2          1.3025   -0.4945   -1.4030 C.3       1 <0>        -0.0211
     13 C3          2.1851    0.4145    0.7779 C.3       1 <0>        -0.0278
     14 C4          1.0913    1.9847   -0.9605 C.3       1 <0>         0.0891
     15 C5          2.9603   -0.8933    1.0108 C.3       1 <0>         0.0512
     16 C6          2.1482   -1.7534   -1.1604 C.3       1 <0>         0.0028
     17 C7         -0.1566   -0.6931   -0.9645 C.3       1 <0>        -0.0089
     18 C8         -0.3766    1.8098   -0.5508 C.3       1 <0>         0.1083
     19 C9         -0.9944    0.5634   -1.1912 C.3       1 <0>         0.1304
     20 C10         4.4377   -0.8025    0.7536 C.cat     1 <0>         0.0376
     21 C11         3.1719   -3.2702    0.4512 C.3       1 <0>         0.0036
     22 C12         4.6386   -3.1710   -0.0370 C.3       1 <0>        -0.0125
     23 C13         5.2245   -1.8431    0.3023 C.2       1 <0>        -0.0164
     24 C14         1.7065    3.1705   -0.2727 C.2       1 <0>         0.3128
     25 C15         6.5628   -1.3716    0.2254 C.ar      1 <0>         0.0032
     26 C16         6.5485   -0.0414    0.6580 C.ar      1 <0>         0.0470
     27 C17        -2.3502    3.0598   -0.2949 C.3       1 <0>         0.0370
     28 C18         7.7893   -1.9427   -0.1691 C.ar      1 <0>        -0.0523
     29 C19        -3.2138   -0.1982   -1.4550 C.2       1 <0>         0.3398
     30 C20         7.7053    0.7437    0.7164 C.ar      1 <0>        -0.0378
     31 C21         8.9529   -1.1673   -0.1163 C.ar      1 <0>        -0.0611
     32 C22         3.6977    4.4348   -0.1280 C.3       1 <0>         0.0817
     33 C23         8.9094    0.1549    0.3201 C.ar      1 <0>        -0.0598
     34 C24        -4.5142   -0.3521   -0.7549 C.ar      1 <0>         0.0661
     35 C25        -5.7061   -0.2935   -1.4768 C.ar      1 <0>        -0.0021
     36 C26        -4.5440   -0.5528    0.6252 C.ar      1 <0>        -0.0021
     37 C27        -5.7657   -0.6948    1.2832 C.ar      1 <0>         0.1660
     38 C28        -6.9278   -0.4354   -0.8189 C.ar      1 <0>         0.1660
     39 C29        -6.9576   -0.6360    0.5611 C.ar      1 <0>         0.2035
     40 C30        -4.5192   -0.9373    3.2940 C.3       1 <0>         0.0790
     41 C31        -8.5873   -1.6041   -2.0584 C.3       1 <0>         0.0790
     42 C32        -8.7687    0.4130    1.6903 C.3       1 <0>         0.0791
     43 H1          2.9307    0.8798   -1.1774 H         1 <0>         0.0313
     44 H2          1.2969   -0.3087   -2.4863 H         1 <0>         0.0317
     45 H3          1.2220    0.3325    1.2967 H         1 <0>         0.0287
     46 H4          2.7046    1.2499    1.2607 H         1 <0>         0.0287
     47 H5          1.1078    2.2248   -2.0340 H         1 <0>         0.0443
     48 H6          2.8554   -1.1225    2.0813 H         1 <0>         0.0527
     49 H7          3.0991   -1.6293   -1.6930 H         1 <0>         0.0429
     50 H8          1.6421   -2.6089   -1.6255 H         1 <0>         0.0429
     51 H9         -0.5975   -1.5292   -1.5221 H         1 <0>         0.0305
     52 H10        -0.2235   -0.9905    0.0895 H         1 <0>         0.0305
     53 H11        -0.4419    1.7498    0.5440 H         1 <0>         0.0641
     54 H12        -1.0800    0.7548   -2.2703 H         1 <0>         0.0760
     55 H13         2.6798   -4.1196   -0.0386 H         1 <0>         0.0430
     56 H14         3.1720   -3.5135    1.5225 H         1 <0>         0.0430
     57 H15         5.2284   -3.9741    0.4190 H         1 <0>         0.0326
     58 H16         4.6784   -3.3106   -1.1238 H         1 <0>         0.0326
     59 H17         4.9455    1.1716    1.3387 H         1 <0>         0.1656
     60 H18        -3.1692    2.5983   -0.8511 H         1 <0>         0.0524
     61 H19        -2.3059    2.6820    0.7317 H         1 <0>         0.0524
     62 H20        -2.5844    4.1277   -0.2372 H         1 <0>         0.0524
     63 H21         7.8389   -2.9725   -0.5111 H         1 <0>         0.0624
     64 H22         7.6734    1.7737    1.0561 H         1 <0>         0.0638
     65 H23         9.9012   -1.6033   -0.4193 H         1 <0>         0.0618
     66 H24         3.1939    5.3765   -0.3658 H         1 <0>         0.0661
     67 H25         3.7822    4.3031    0.9549 H         1 <0>         0.0661
     68 H26         4.7025    4.4552   -0.5580 H         1 <0>         0.0661
     69 H27         9.8256    0.7391    0.3536 H         1 <0>         0.0618
     70 H28        -5.6923   -0.1332   -2.5524 H         1 <0>         0.0663
     71 H29        -3.5941   -0.6084    1.1448 H         1 <0>         0.0663
     72 H30        -3.9179   -1.7888    2.9577 H         1 <0>         0.0660
     73 H31        -3.9823    0.0140    3.2107 H         1 <0>         0.0660
     74 H32        -4.7211   -1.0940    4.3589 H         1 <0>         0.0660
     75 H33        -7.8696   -2.0455   -2.7573 H         1 <0>         0.0660
     76 H34        -8.8048   -2.3075   -1.2485 H         1 <0>         0.0660
     77 H35        -9.5153   -1.3929   -2.5968 H         1 <0>         0.0660
     78 H36        -8.9912    1.0970    0.8651 H         1 <0>         0.0660
     79 H37        -8.1260    0.9079    2.4251 H         1 <0>         0.0660
     80 H38        -9.7079    0.1370    2.1776 H         1 <0>         0.0660
@<TRIPOS>BOND
     1    1   18 1
     2    1   27 1
     3    2   19 1
     4    2   29 1
     5    3   24 1
     6    3   32 1
     7    4   24 2
     8    5   29 2
     9    6   37 1
    10    6   40 1
    11    7   38 1
    12    7   41 1
    13    8   39 1
    14    8   42 1
    15    9   15 1
    16    9   16 1
    17    9   21 1
    18   10   20 1
    19   10   26 2
    20   10   59 1
    21   11   12 1
    22   11   13 1
    23   11   14 1
    24   11   43 1
    25   12   16 1
    26   12   17 1
    27   12   44 1
    28   13   15 1
    29   13   45 1
    30   13   46 1
    31   14   18 1
    32   14   24 1
    33   14   47 1
    34   15   20 1
    35   15   48 1
    36   16   49 1
    37   16   50 1
    38   17   19 1
    39   17   51 1
    40   17   52 1
    41   18   19 1
    42   18   53 1
    43   19   54 1
    44   20   23 1
    45   21   22 1
    46   21   55 1
    47   21   56 1
    48   22   23 1
    49   22   57 1
    50   22   58 1
    51   23   25 2
    52   25   26 ar
    53   25   28 ar
    54   26   30 ar
    55   27   60 1
    56   27   61 1
    57   27   62 1
    58   28   31 ar
    59   28   63 1
    60   29   34 1
    61   30   33 ar
    62   30   64 1
    63   31   33 ar
    64   31   65 1
    65   32   66 1
    66   32   67 1
    67   32   68 1
    68   33   69 1
    69   34   35 ar
    70   34   36 ar
    71   35   38 ar
    72   35   70 1
    73   36   37 ar
    74   36   71 1
    75   37   39 ar
    76   38   39 ar
    77   40   72 1
    78   40   73 1
    79   40   74 1
    80   41   75 1
    81   41   76 1
    82   41   77 1
    83   42   78 1
    84   42   79 1
    85   42   80 1
