@<TRIPOS>MOLECULE
DB01176
   42    44     0     0     0
SMALL
USER_CHARGES

@<TRIPOS>ATOM
      1 N1          0.6860    0.0670   -0.0486 N.3       1 <0>        -0.2891
      2 N2          3.5674    0.0981   -0.2832 N.3       1 <0>        -0.3029
      3 C1          1.3921    1.2217   -0.6169 C.3       1 <0>         0.0126
      4 C2          1.4442   -1.1666   -0.2905 C.3       1 <0>         0.0126
      5 C3         -0.6644   -0.0375   -0.5977 C.3       1 <0>         0.0610
      6 C4          2.8086    1.3314   -0.0422 C.3       1 <0>         0.0115
      7 C5          2.8611   -1.0576    0.2832 C.3       1 <0>         0.0115
      8 C6         -1.5067    1.1954   -0.3051 C.ar      1 <0>        -0.0259
      9 C7         -1.3665   -1.3178   -0.1697 C.ar      1 <0>        -0.0259
     10 C8          4.9170    0.2028    0.2678 C.3       1 <0>        -0.0127
     11 C9         -2.4928    1.5580   -1.2000 C.ar      1 <0>        -0.0568
     12 C10        -1.2354   -2.4454   -0.9546 C.ar      1 <0>        -0.0568
     13 C11        -1.2593    1.9148    0.8466 C.ar      1 <0>        -0.0568
     14 C12        -2.1138   -1.3134    0.9907 C.ar      1 <0>        -0.0568
     15 C13        -3.2646    2.6885   -0.9317 C.ar      1 <0>        -0.0614
     16 C14        -1.8792   -3.6190   -0.5622 C.ar      1 <0>        -0.0614
     17 C15        -2.0313    3.0453    1.1148 C.ar      1 <0>        -0.0614
     18 C16        -2.7574   -2.4870    1.3831 C.ar      1 <0>        -0.0614
     19 C17        -3.0341    3.4320    0.2257 C.ar      1 <0>        -0.0617
     20 C18        -2.6402   -3.6399    0.6068 C.ar      1 <0>        -0.0617
     21 H1          0.9034    2.1785   -0.4151 H         1 <0>         0.0439
     22 H2          1.4574    1.1317   -1.7107 H         1 <0>         0.0439
     23 H3          1.5051   -1.3981   -1.3623 H         1 <0>         0.0439
     24 H4          1.0057   -2.0233    0.2303 H         1 <0>         0.0439
     25 H5         -0.5736   -0.0802   -1.6956 H         1 <0>         0.0562
     26 H6          3.3137    2.1751   -0.5282 H         1 <0>         0.0439
     27 H7          2.7549    1.5566    1.0317 H         1 <0>         0.0439
     28 H8          2.8122   -0.9869    1.3785 H         1 <0>         0.0439
     29 H9          3.4047   -1.9788    0.0398 H         1 <0>         0.0439
     30 H10         5.4939   -0.7019    0.0462 H         1 <0>         0.0391
     31 H11         4.9116    0.3507    1.3539 H         1 <0>         0.0391
     32 H12         5.4556    1.0392   -0.1912 H         1 <0>         0.0391
     33 H13        -2.6809    0.9847   -2.1028 H         1 <0>         0.0621
     34 H14        -0.6586   -2.4413   -1.8744 H         1 <0>         0.0621
     35 H15        -0.5073    1.6270    1.5749 H         1 <0>         0.0621
     36 H16        -2.2127   -0.4496    1.6369 H         1 <0>         0.0621
     37 H17        -4.0459    2.9892   -1.6236 H         1 <0>         0.0618
     38 H18        -1.7904   -4.5159   -1.1682 H         1 <0>         0.0618
     39 H19        -1.8565    3.6206    2.0193 H         1 <0>         0.0618
     40 H20        -3.3456   -2.5053    2.2961 H         1 <0>         0.0618
     41 H21        -3.6365    4.3110    0.4355 H         1 <0>         0.0618
     42 H22        -3.1408   -4.5539    0.9126 H         1 <0>         0.0618
@<TRIPOS>BOND
     1    1    3 1
     2    1    4 1
     3    1    5 1
     4    2    6 1
     5    2    7 1
     6    2   10 1
     7    3    6 1
     8    3   21 1
     9    3   22 1
    10    4    7 1
    11    4   23 1
    12    4   24 1
    13    5    8 1
    14    5    9 1
    15    5   25 1
    16    6   26 1
    17    6   27 1
    18    7   28 1
    19    7   29 1
    20    8   11 ar
    21    8   13 ar
    22    9   12 ar
    23    9   14 ar
    24   10   30 1
    25   10   31 1
    26   10   32 1
    27   11   15 ar
    28   11   33 1
    29   12   16 ar
    30   12   34 1
    31   13   17 ar
    32   13   35 1
    33   14   18 ar
    34   14   36 1
    35   15   19 ar
    36   15   37 1
    37   16   20 ar
    38   16   38 1
    39   17   19 ar
    40   17   39 1
    41   18   20 ar
    42   18   40 1
    43   19   41 1
    44   20   42 1
