@<TRIPOS>MOLECULE
DB01026
   64    68     0     0     0
SMALL
USER_CHARGES

@<TRIPOS>ATOM
      1 Cl1        -3.4205    2.3430    1.2206 Cl        1 <0>        -0.0830
      2 Cl2        -8.3165    4.5583    0.9267 Cl        1 <0>        -0.0835
      3 O1         -3.3925    0.1394   -0.1647 O.3       1 <0>        -0.3343
      4 O2         -5.2614   -1.0504   -0.9252 O.3       1 <0>        -0.3406
      5 O3         -1.0543    0.8123   -1.6930 O.3       1 <0>        -0.4893
      6 O4          8.7848   -1.2320    1.4714 O.2       1 <0>        -0.2759
      7 N1          4.2518    0.2931   -0.1742 N.pl3     1 <0>        -0.3269
      8 N2          7.0385   -0.0075    0.5491 N.am      1 <0>        -0.2987
      9 N3         -3.8703   -2.2701    1.2729 N.pl3     1 <0>        -0.3313
     10 N4         -3.2819   -4.3604    0.8075 N.2       1 <0>        -0.2441
     11 C1         -4.7472   -0.2414    0.1517 C.3       1 <0>         0.2169
     12 C2         -3.2450   -0.1445   -1.5576 C.3       1 <0>         0.1195
     13 C3         -4.1325   -1.3471   -1.7474 C.3       1 <0>         0.0808
     14 C4         -4.7106   -1.0890    1.4229 C.3       1 <0>         0.0828
     15 C5         -5.6214    0.9868    0.3582 C.ar      1 <0>         0.0313
     16 C6         -1.7915   -0.3917   -1.8993 C.3       1 <0>         0.1179
     17 C7          5.0903    1.4707    0.0627 C.3       1 <0>         0.0280
     18 C8          4.8417   -1.0313    0.0401 C.3       1 <0>         0.0280
     19 C9          6.5612    1.1525   -0.2070 C.3       1 <0>         0.0304
     20 C10         6.0190   -0.9471    1.0091 C.3       1 <0>         0.0304
     21 C11         2.9189    0.4241   -0.5567 C.ar      1 <0>         0.0300
     22 C12        -5.0962    2.1874    0.8358 C.ar      1 <0>         0.0507
     23 C13        -6.9797    0.8908    0.0560 C.ar      1 <0>        -0.0507
     24 C14         0.2486    0.6850   -1.3204 C.ar      1 <0>         0.1207
     25 C15         8.3816   -0.2558    0.8348 C.2       1 <0>         0.2126
     26 C16         2.1805    1.5330   -0.1434 C.ar      1 <0>        -0.0372
     27 C17         2.3222   -0.5542   -1.3518 C.ar      1 <0>        -0.0372
     28 C18        -2.5341   -2.3526    1.5470 C.cat     1 <0>         0.0242
     29 C19        -4.2750   -3.4994    0.8323 C.cat     1 <0>         0.0961
     30 C20         0.8454    1.6634   -0.5253 C.ar      1 <0>        -0.0182
     31 C21         0.9869   -0.4240   -1.7336 C.ar      1 <0>        -0.0182
     32 C22        -5.9292    3.2922    1.0111 C.ar      1 <0>        -0.0246
     33 C23        -7.8127    1.9958    0.2313 C.ar      1 <0>        -0.0429
     34 C24        -7.2876    3.1964    0.7090 C.ar      1 <0>         0.0424
     35 C25        -2.1940   -3.6519    1.2524 C.2       1 <0>         0.0454
     36 C26         9.3715    0.7602    0.3203 C.3       1 <0>         0.0124
     37 H1         -3.6300    0.7261   -2.1032 H         1 <0>         0.0654
     38 H2         -4.4536   -1.4672   -2.7861 H         1 <0>         0.0588
     39 H3         -3.6644   -2.2802   -1.4297 H         1 <0>         0.0588
     40 H4         -5.7101   -1.4504    1.6952 H         1 <0>         0.0549
     41 H5         -4.3094   -0.5294    2.2766 H         1 <0>         0.0549
     42 H6         -1.6944   -0.6937   -2.9480 H         1 <0>         0.0723
     43 H7         -1.4222   -1.1934   -1.2466 H         1 <0>         0.0723
     44 H8          4.8008    2.2997   -0.5945 H         1 <0>         0.0479
     45 H9          4.9648    1.8007    1.1013 H         1 <0>         0.0479
     46 H10         4.1035   -1.7238    0.4629 H         1 <0>         0.0479
     47 H11         5.1809   -1.4369   -0.9209 H         1 <0>         0.0479
     48 H12         6.7088    0.9175   -1.2682 H         1 <0>         0.0480
     49 H13         7.1718    2.0297    0.0256 H         1 <0>         0.0480
     50 H14         6.4590   -1.9398    1.1527 H         1 <0>         0.0480
     51 H15         5.6821   -0.5938    1.9915 H         1 <0>         0.0480
     52 H16        -7.4193   -0.0348   -0.3048 H         1 <0>         0.0623
     53 H17         2.6107    2.3046    0.4891 H         1 <0>         0.0637
     54 H18         2.8761   -1.4191   -1.7064 H         1 <0>         0.0637
     55 H19        -1.9601   -1.5125    1.9126 H         1 <0>         0.0825
     56 H20        -5.2969   -3.7083    0.5462 H         1 <0>         0.1029
     57 H21         0.2732    2.5270   -0.1972 H         1 <0>         0.0655
     58 H22         0.5700   -1.1914   -2.3789 H         1 <0>         0.0655
     59 H23        -5.5213    4.2295    1.3838 H         1 <0>         0.0647
     60 H24        -8.8699    1.9059   -0.0052 H         1 <0>         0.0632
     61 H25        -1.2206   -4.1126    1.3367 H         1 <0>         0.0845
     62 H26        10.3879    0.3800    0.4617 H         1 <0>         0.0323
     63 H27         9.2232    0.9383   -0.7480 H         1 <0>         0.0323
     64 H28         9.2707    1.6943    0.8787 H         1 <0>         0.0323
@<TRIPOS>BOND
     1    1   22 1
     2    2   34 1
     3    3   11 1
     4    3   12 1
     5    4   11 1
     6    4   13 1
     7    5   16 1
     8    5   24 1
     9    6   25 2
    10    7   17 1
    11    7   18 1
    12    7   21 1
    13    8   19 1
    14    8   20 1
    15    8   25 am
    16    9   14 1
    17    9   28 1
    18    9   29 2
    19   10   29 1
    20   10   35 2
    21   11   14 1
    22   11   15 1
    23   12   13 1
    24   12   16 1
    25   12   37 1
    26   13   38 1
    27   13   39 1
    28   14   40 1
    29   14   41 1
    30   15   22 ar
    31   15   23 ar
    32   16   42 1
    33   16   43 1
    34   17   19 1
    35   17   44 1
    36   17   45 1
    37   18   20 1
    38   18   46 1
    39   18   47 1
    40   19   48 1
    41   19   49 1
    42   20   50 1
    43   20   51 1
    44   21   26 ar
    45   21   27 ar
    46   22   32 ar
    47   23   33 ar
    48   23   52 1
    49   24   30 ar
    50   24   31 ar
    51   25   36 1
    52   26   30 ar
    53   26   53 1
    54   27   31 ar
    55   27   54 1
    56   28   35 1
    57   28   55 1
    58   29   56 1
    59   30   57 1
    60   31   58 1
    61   32   34 ar
    62   32   59 1
    63   33   34 ar
    64   33   60 1
    65   35   61 1
    66   36   62 1
    67   36   63 1
    68   36   64 1
