@<TRIPOS>MOLECULE
DB01577
   26    26     0     0     0
SMALL
USER_CHARGES

@<TRIPOS>ATOM
      1 N1          2.7950   -0.3219   -0.0042 N.3       1 <0>        -0.3162
      2 C1          1.3823   -0.3766   -0.3920 C.3       1 <0>         0.0085
      3 C2          0.5188    0.2331    0.7272 C.3       1 <0>        -0.0125
      4 C3         -0.9563    0.2609    0.4057 C.ar      1 <0>        -0.0459
      5 C4          1.0200   -1.8326   -0.6849 C.3       1 <0>        -0.0494
      6 C5         -1.4910    1.3673   -0.2351 C.ar      1 <0>        -0.0585
      7 C6         -1.7485   -0.8203    0.7574 C.ar      1 <0>        -0.0585
      8 C7          3.1904    1.0440    0.2961 C.3       1 <0>        -0.0155
      9 C8         -2.8537    1.3932   -0.5317 C.ar      1 <0>        -0.0615
     10 C9         -3.1112   -0.7945    0.4606 C.ar      1 <0>        -0.0615
     11 C10        -3.6638    0.3123   -0.1839 C.ar      1 <0>        -0.0617
     12 H1          1.2399    0.1944   -1.3194 H         1 <0>         0.0461
     13 H2          0.7994    1.2699    0.9463 H         1 <0>         0.0328
     14 H3          0.6714   -0.3149    1.6677 H         1 <0>         0.0328
     15 H4          0.0222   -1.9172   -1.1262 H         1 <0>         0.0245
     16 H5          1.0524   -2.4473    0.2215 H         1 <0>         0.0245
     17 H6          1.7168   -2.2705   -1.4096 H         1 <0>         0.0245
     18 H7          3.3631   -0.6743   -0.7747 H         1 <0>         0.1219
     19 H8         -0.8682    2.2128   -0.5128 H         1 <0>         0.0620
     20 H9         -1.3306   -1.6853    1.2642 H         1 <0>         0.0620
     21 H10         4.2851    1.0958    0.3063 H         1 <0>         0.0388
     22 H11         2.8723    1.3593    1.2943 H         1 <0>         0.0388
     23 H12         2.8452    1.7613   -0.4562 H         1 <0>         0.0388
     24 H13        -3.2840    2.2546   -1.0342 H         1 <0>         0.0618
     25 H14        -3.7422   -1.6356    0.7325 H         1 <0>         0.0618
     26 H15        -4.7248    0.3323   -0.4148 H         1 <0>         0.0618
@<TRIPOS>BOND
     1    1    2 1
     2    1    8 1
     3    1   18 1
     4    2    3 1
     5    2    5 1
     6    2   12 1
     7    3    4 1
     8    3   13 1
     9    3   14 1
    10    4    6 ar
    11    4    7 ar
    12    5   15 1
    13    5   16 1
    14    5   17 1
    15    6    9 ar
    16    6   19 1
    17    7   10 ar
    18    7   20 1
    19    8   21 1
    20    8   22 1
    21    8   23 1
    22    9   11 ar
    23    9   24 1
    24   10   11 ar
    25   10   25 1
    26   11   26 1
