@<TRIPOS>MOLECULE
DB01268
   56    58     0     0     0
SMALL
USER_CHARGES

@<TRIPOS>ATOM
      1 F1          8.5997    1.3739   -2.7276 F         1 <0>        -0.2055
      2 O1         -1.6709   -1.5869    1.5473 O.2       1 <0>        -0.2701
      3 O2          3.6496   -0.5412    2.1060 O.2       1 <0>        -0.2698
      4 N1         -5.4854    0.4080    0.1088 N.3       1 <0>        -0.3014
      5 N2          2.1314   -2.0309   -0.2828 N.pl3     1 <0>        -0.3578
      6 N3         -1.7650    0.3285    0.2675 N.am      1 <0>        -0.3101
      7 N4          5.8989    0.1430    1.8747 N.am      1 <0>        -0.2809
      8 C1         -4.1313    0.0629   -0.3046 C.3       1 <0>         0.0145
      9 C2          0.2489   -1.0109    0.3073 C.2       1 <0>         0.0604
     10 C3          1.2040   -0.0267   -0.0483 C.2       1 <0>        -0.0134
     11 C4          2.3316   -0.6942   -0.3995 C.cat     1 <0>         0.0438
     12 C5         -3.1150    0.6821    0.6436 C.3       1 <0>         0.0247
     13 C6          0.8492   -2.2411    0.1534 C.2       1 <0>         0.0257
     14 C7         -6.4704   -0.2159   -0.7770 C.3       1 <0>        -0.0039
     15 C8         -5.6663    1.8609    0.1243 C.3       1 <0>        -0.0039
     16 C9         -1.1023   -0.8120    0.7506 C.2       1 <0>         0.2461
     17 C10         4.6686   -0.0388   -0.0468 C.2       1 <0>         0.0479
     18 C11         3.6267   -0.2706   -0.8476 C.2       1 <0>        -0.0253
     19 C12         6.0147    0.3918   -0.4085 C.ar      1 <0>         0.0111
     20 C13         0.9989    1.4373   -0.0344 C.3       1 <0>        -0.0370
     21 C14         6.7200    0.4866    0.7948 C.ar      1 <0>         0.0417
     22 C15         0.3378   -3.6080    0.3751 C.3       1 <0>        -0.0237
     23 C16         4.6117   -0.1959    1.4453 C.2       1 <0>         0.2490
     24 C17        -6.3017   -1.7255   -0.8089 C.3       1 <0>        -0.0524
     25 C18        -7.0532    2.2363    0.6178 C.3       1 <0>        -0.0524
     26 C19         6.6286    0.6866   -1.6112 C.ar      1 <0>        -0.0168
     27 C20         8.0450    0.8725    0.8469 C.ar      1 <0>        -0.0372
     28 C21         7.9708    1.0800   -1.5813 C.ar      1 <0>         0.1241
     29 C22         8.6721    1.1720   -0.3642 C.ar      1 <0>        -0.0247
     30 H1         -3.9658   -1.0192   -0.2682 H         1 <0>         0.0442
     31 H2         -3.9283    0.3841   -1.3350 H         1 <0>         0.0442
     32 H3         -3.1125    1.7741    0.6105 H         1 <0>         0.0475
     33 H4         -3.2937    0.3648    1.6773 H         1 <0>         0.0475
     34 H5          2.8075   -2.7572   -0.4806 H         1 <0>         0.1656
     35 H6         -7.4861   -0.0398   -0.4084 H         1 <0>         0.0424
     36 H7         -6.4137    0.1821   -1.7980 H         1 <0>         0.0424
     37 H8         -4.9896    2.3387    0.8374 H         1 <0>         0.0424
     38 H9         -5.4852    2.3097   -0.8603 H         1 <0>         0.0424
     39 H10         3.7341   -0.1307   -1.9205 H         1 <0>         0.0646
     40 H11        -1.3339    0.8964   -0.4518 H         1 <0>         0.1491
     41 H12         0.5112    1.7732   -0.9547 H         1 <0>         0.0278
     42 H13         1.9562    1.9667    0.0332 H         1 <0>         0.0278
     43 H14         0.4100    1.7589    0.8300 H         1 <0>         0.0278
     44 H15         1.0156   -4.3666   -0.0305 H         1 <0>         0.0292
     45 H16         0.2187   -3.8025    1.4458 H         1 <0>         0.0292
     46 H17        -0.6345   -3.7417   -0.1100 H         1 <0>         0.0292
     47 H18        -7.1839   -2.1817   -1.2727 H         1 <0>         0.0242
     48 H19        -6.2103   -2.1474    0.1980 H         1 <0>         0.0242
     49 H20        -5.4415   -2.0389   -1.4085 H         1 <0>         0.0242
     50 H21        -7.8285    2.0524   -0.1323 H         1 <0>         0.0242
     51 H22        -7.3150    1.7044    1.5390 H         1 <0>         0.0242
     52 H23        -7.0858    3.3090    0.8409 H         1 <0>         0.0242
     53 H24         6.2117    0.1447    2.8385 H         1 <0>         0.1552
     54 H25         6.0989    0.6196   -2.5549 H         1 <0>         0.0653
     55 H26         8.5836    0.9432    1.7849 H         1 <0>         0.0637
     56 H27         9.7142    1.4801   -0.3698 H         1 <0>         0.0647
@<TRIPOS>BOND
     1    1   28 1
     2    2   16 2
     3    3   23 2
     4    4    8 1
     5    4   14 1
     6    4   15 1
     7    5   11 1
     8    5   13 2
     9    5   34 1
    10    6   12 1
    11    6   16 am
    12    6   40 1
    13    7   21 1
    14    7   23 am
    15    7   53 1
    16    8   12 1
    17    8   30 1
    18    8   31 1
    19    9   10 2
    20    9   13 1
    21    9   16 1
    22   10   11 1
    23   10   20 1
    24   11   18 1
    25   12   32 1
    26   12   33 1
    27   13   22 1
    28   14   24 1
    29   14   35 1
    30   14   36 1
    31   15   25 1
    32   15   37 1
    33   15   38 1
    34   17   18 2
    35   17   19 1
    36   17   23 1
    37   18   39 1
    38   19   21 ar
    39   19   26 ar
    40   20   41 1
    41   20   42 1
    42   20   43 1
    43   21   27 ar
    44   22   44 1
    45   22   45 1
    46   22   46 1
    47   24   47 1
    48   24   48 1
    49   24   49 1
    50   25   50 1
    51   25   51 1
    52   25   52 1
    53   26   28 ar
    54   26   54 1
    55   27   29 ar
    56   27   55 1
    57   28   29 ar
    58   29   56 1
