@<TRIPOS>MOLECULE
DB01037
   31    31     0     0     0
SMALL
USER_CHARGES

@<TRIPOS>ATOM
      1 N1         -1.9680   -0.0406   -0.2541 N.3       1 <0>        -0.2916
      2 C1         -0.5900    0.1781    0.1958 C.3       1 <0>         0.0121
      3 C2          0.3874   -0.4361   -0.8229 C.3       1 <0>        -0.0122
      4 C3         -0.3769    1.6807    0.3795 C.3       1 <0>        -0.0492
      5 C4          1.8382   -0.2978   -0.4280 C.ar      1 <0>        -0.0459
      6 C5         -2.9119    0.5240    0.7078 C.3       1 <0>         0.0606
      7 C6         -2.2195   -1.4676   -0.4440 C.3       1 <0>        -0.0116
      8 C7          2.5484    0.8212   -0.8327 C.ar      1 <0>        -0.0585
      9 C8          2.4332   -1.2926    0.3316 C.ar      1 <0>        -0.0585
     10 C9          3.8885    0.9491   -0.4680 C.ar      1 <0>        -0.0615
     11 C10         3.7735   -1.1647    0.6961 C.ar      1 <0>        -0.0615
     12 C11         4.5013   -0.0439    0.2965 C.ar      1 <0>        -0.0617
     13 C12        -4.2931    0.3615    0.2434 C.1       1 <0>        -0.0900
     14 C13        -5.4260    0.2309   -0.1320 C.1       1 <0>        -0.1179
     15 H1         -0.4241   -0.3042    1.1701 H         1 <0>         0.0463
     16 H2          0.2386    0.0151   -1.8139 H         1 <0>         0.0328
     17 H3          0.2245   -1.5103   -0.9613 H         1 <0>         0.0328
     18 H4         -0.9204    2.0879    1.2377 H         1 <0>         0.0245
     19 H5         -0.6530    2.2466   -0.5176 H         1 <0>         0.0245
     20 H6          0.6656    1.9166    0.6082 H         1 <0>         0.0245
     21 H7         -2.7956    0.0703    1.7002 H         1 <0>         0.0563
     22 H8         -2.7935    1.6052    0.8210 H         1 <0>         0.0563
     23 H9         -1.7181   -1.8510   -1.3383 H         1 <0>         0.0391
     24 H10        -3.2725   -1.6957   -0.6401 H         1 <0>         0.0391
     25 H11        -1.9161   -2.0655    0.4238 H         1 <0>         0.0391
     26 H12         2.0850    1.5970   -1.4354 H         1 <0>         0.0620
     27 H13         1.8747   -2.1678    0.6507 H         1 <0>         0.0620
     28 H14         4.4557    1.8209   -0.7809 H         1 <0>         0.0618
     29 H15         4.2503   -1.9374    1.2919 H         1 <0>         0.0618
     30 H16         5.5449    0.0555    0.5802 H         1 <0>         0.0618
     31 H17        -6.4308    0.1145   -0.4653 H         1 <0>         0.1228
@<TRIPOS>BOND
     1    1    2 1
     2    1    6 1
     3    1    7 1
     4    2    3 1
     5    2    4 1
     6    2   15 1
     7    3    5 1
     8    3   16 1
     9    3   17 1
    10    4   18 1
    11    4   19 1
    12    4   20 1
    13    5    8 ar
    14    5    9 ar
    15    6   13 1
    16    6   21 1
    17    6   22 1
    18    7   23 1
    19    7   24 1
    20    7   25 1
    21    8   10 ar
    22    8   26 1
    23    9   11 ar
    24    9   27 1
    25   10   12 ar
    26   10   28 1
    27   11   12 ar
    28   11   29 1
    29   12   30 1
    30   13   14 3
    31   14   31 1
