@<TRIPOS>MOLECULE
DB01197
   29    29     0     0     0
SMALL
USER_CHARGES

@<TRIPOS>ATOM
      1 S1          3.0003    0.1187   -2.4494 S.3       1 <0>        -0.1775
      2 O1          0.8154    1.8068   -0.7943 O.2       1 <0>        -0.2753
      3 O2         -2.9663    2.4306   -0.4046 O.3       1 <0>        -0.4793
      4 O3         -1.9945    1.5419    1.4560 O.2       1 <0>        -0.2489
      5 N1         -0.4507   -0.0233   -0.1587 N.am      1 <0>        -0.2878
      6 C1         -1.7192    0.4598   -0.6883 C.3       1 <0>         0.1228
      7 C2         -2.6250   -0.7661   -0.7024 C.3       1 <0>        -0.0225
      8 C3         -2.0882   -1.6172    0.4457 C.3       1 <0>        -0.0349
      9 C4         -0.5885   -1.3683    0.3940 C.3       1 <0>         0.0156
     10 C5          0.7378    0.6710   -0.3234 C.2       1 <0>         0.2198
     11 C6          1.9809   -0.0525    0.1295 C.3       1 <0>         0.0417
     12 C7         -2.2203    1.5112    0.2555 C.2       1 <0>         0.3255
     13 C8          3.1999    0.4124   -0.6637 C.3       1 <0>         0.0015
     14 C9          2.1601    0.2281    1.6168 C.3       1 <0>        -0.0533
     15 H1         -1.5615    0.8933   -1.6816 H         1 <0>         0.0616
     16 H2         -2.4975   -1.3103   -1.6462 H         1 <0>         0.0289
     17 H3         -3.6867   -0.5309   -0.5819 H         1 <0>         0.0289
     18 H4         -2.4972   -1.2597    1.3982 H         1 <0>         0.0281
     19 H5         -2.3424   -2.6761    0.3450 H         1 <0>         0.0281
     20 H6         -0.1228   -1.4585    1.3764 H         1 <0>         0.0465
     21 H7         -0.1092   -2.0695   -0.2981 H         1 <0>         0.0465
     22 H8          1.8805   -1.1327   -0.0153 H         1 <0>         0.0399
     23 H9          3.3883    1.4820   -0.5193 H         1 <0>         0.0381
     24 H10         4.0947   -0.1248   -0.3315 H         1 <0>         0.0381
     25 H11         1.2814   -0.0413    2.2087 H         1 <0>         0.0237
     26 H12         3.0144   -0.3312    2.0129 H         1 <0>         0.0237
     27 H13         2.3478    1.2934    1.7964 H         1 <0>         0.0237
     28 H14        -3.3052    3.1275    0.1969 H         1 <0>         0.2951
     29 H15         2.8737   -1.2143   -2.3734 H         1 <0>         0.1017
@<TRIPOS>BOND
     1    1   13 1
     2    1   29 1
     3    2   10 2
     4    3   12 1
     5    3   28 1
     6    4   12 2
     7    5    6 1
     8    5    9 1
     9    5   10 am
    10    6    7 1
    11    6   12 1
    12    6   15 1
    13    7    8 1
    14    7   16 1
    15    7   17 1
    16    8    9 1
    17    8   18 1
    18    8   19 1
    19    9   20 1
    20    9   21 1
    21   10   11 1
    22   11   13 1
    23   11   14 1
    24   11   22 1
    25   13   23 1
    26   13   24 1
    27   14   25 1
    28   14   26 1
    29   14   27 1
