@<TRIPOS>MOLECULE
DB01146
   44    46     0     0     0
SMALL
USER_CHARGES

@<TRIPOS>ATOM
      1 O1         -0.0436    0.3503   -0.7325 O.3       1 <0>        -0.3640
      2 N1          4.0871    0.6823   -0.1438 N.3       1 <0>        -0.3052
      3 C1          1.2321    0.0597   -0.1761 C.3       1 <0>         0.0622
      4 C2          1.7830    1.3180    0.4875 C.3       1 <0>        -0.0137
      5 C3          2.1820   -0.4194   -1.2701 C.3       1 <0>        -0.0137
      6 C4          3.2205    1.1119    0.9632 C.3       1 <0>         0.0009
      7 C5          3.6072   -0.5725   -0.7403 C.3       1 <0>         0.0009
      8 C6         -1.0856    0.1261    0.2073 C.3       1 <0>         0.1090
      9 C7          5.4682    0.5354    0.3150 C.3       1 <0>        -0.0128
     10 C8         -2.2049    1.1235   -0.0087 C.ar      1 <0>        -0.0145
     11 C9         -1.5644   -1.3126    0.1836 C.ar      1 <0>        -0.0145
     12 C10        -2.9711    1.5214    1.0723 C.ar      1 <0>        -0.0558
     13 C11        -2.0616   -1.8750    1.3447 C.ar      1 <0>        -0.0558
     14 C12        -2.4350    1.6139   -1.2816 C.ar      1 <0>        -0.0558
     15 C13        -1.4926   -2.0261   -0.9985 C.ar      1 <0>        -0.0558
     16 C14        -4.0018    2.4400    0.8737 C.ar      1 <0>        -0.0614
     17 C15        -2.5024   -3.1982    1.3230 C.ar      1 <0>        -0.0614
     18 C16        -3.4656    2.5327   -1.4801 C.ar      1 <0>        -0.0614
     19 C17        -1.9334   -3.3493   -1.0201 C.ar      1 <0>        -0.0614
     20 C18        -4.2491    2.9457   -0.4024 C.ar      1 <0>        -0.0617
     21 C19        -2.4384   -3.9353    0.1408 C.ar      1 <0>        -0.0617
     22 H1          1.1613   -0.7464    0.5680 H         1 <0>         0.0597
     23 H2          1.1567    1.6152    1.3362 H         1 <0>         0.0302
     24 H3          1.7386    2.1581   -0.2189 H         1 <0>         0.0302
     25 H4          2.1659    0.2869   -2.1109 H         1 <0>         0.0302
     26 H5          1.8263   -1.3733   -1.6776 H         1 <0>         0.0302
     27 H6          3.5847    2.0625    1.3715 H         1 <0>         0.0427
     28 H7          3.2366    0.3785    1.7803 H         1 <0>         0.0427
     29 H8          3.6428   -1.3916   -0.0098 H         1 <0>         0.0427
     30 H9          4.2546   -0.8560   -1.5790 H         1 <0>         0.0427
     31 H10        -0.6907    0.3318    1.2131 H         1 <0>         0.0697
     32 H11         5.8443    1.4841    0.7136 H         1 <0>         0.0391
     33 H12         6.1242    0.2645   -0.5197 H         1 <0>         0.0391
     34 H13         5.5669   -0.2296    1.0938 H         1 <0>         0.0391
     35 H14        -2.7865    1.1400    2.0720 H         1 <0>         0.0621
     36 H15        -2.1120   -1.3140    2.2729 H         1 <0>         0.0621
     37 H16        -1.8464    1.2987   -2.1379 H         1 <0>         0.0621
     38 H17        -1.1128   -1.5866   -1.9159 H         1 <0>         0.0621
     39 H18        -4.6112    2.7625    1.7129 H         1 <0>         0.0618
     40 H19        -2.8944   -3.6549    2.2271 H         1 <0>         0.0618
     41 H20        -3.6602    2.9246   -2.4742 H         1 <0>         0.0618
     42 H21        -1.8858   -3.9228   -1.9412 H         1 <0>         0.0618
     43 H22        -5.0517    3.6607   -0.5570 H         1 <0>         0.0618
     44 H23        -2.7818   -4.9655    0.1238 H         1 <0>         0.0618
@<TRIPOS>BOND
     1    1    3 1
     2    1    8 1
     3    2    6 1
     4    2    7 1
     5    2    9 1
     6    3    4 1
     7    3    5 1
     8    3   22 1
     9    4    6 1
    10    4   23 1
    11    4   24 1
    12    5    7 1
    13    5   25 1
    14    5   26 1
    15    6   27 1
    16    6   28 1
    17    7   29 1
    18    7   30 1
    19    8   10 1
    20    8   11 1
    21    8   31 1
    22    9   32 1
    23    9   33 1
    24    9   34 1
    25   10   12 ar
    26   10   14 ar
    27   11   13 ar
    28   11   15 ar
    29   12   16 ar
    30   12   35 1
    31   13   17 ar
    32   13   36 1
    33   14   18 ar
    34   14   37 1
    35   15   19 ar
    36   15   38 1
    37   16   20 ar
    38   16   39 1
    39   17   21 ar
    40   17   40 1
    41   18   20 ar
    42   18   41 1
    43   19   21 ar
    44   19   42 1
    45   20   43 1
    46   21   44 1
