@<TRIPOS>MOLECULE
DB01403
   47    49     0     0     0
SMALL
USER_CHARGES

@<TRIPOS>ATOM
      1 S1         -0.6053    2.5380    1.9804 S.3       1 <0>        -0.0857
      2 O1          4.1891    0.8415   -1.0739 O.3       1 <0>        -0.4950
      3 N1         -0.6572    0.9194   -0.6734 N.pl3     1 <0>        -0.2979
      4 N2         -0.6038   -3.1031    0.8632 N.3       1 <0>        -0.3080
      5 C1         -0.3379   -1.5246   -1.0413 C.3       1 <0>        -0.0150
      6 C2         -0.7445   -0.1719   -1.6523 C.3       1 <0>         0.0211
      7 C3         -1.1107   -1.8841    0.2421 C.3       1 <0>         0.0023
      8 C4         -0.4739   -2.6574   -2.0650 C.3       1 <0>        -0.0598
      9 C5          0.6301    1.2547   -0.1826 C.ar      1 <0>         0.0514
     10 C6         -1.8578    1.5975   -0.3431 C.ar      1 <0>         0.0479
     11 C7          0.7836    2.0064    0.9991 C.ar      1 <0>         0.0343
     12 C8         -1.9508    2.3832    0.8227 C.ar      1 <0>         0.0341
     13 C9          1.8100    0.8867   -0.8657 C.ar      1 <0>         0.0025
     14 C10        -2.9971    1.5493   -1.1759 C.ar      1 <0>        -0.0393
     15 C11        -1.3429   -3.4007    2.0910 C.3       1 <0>        -0.0130
     16 C12         0.8265   -2.9793    1.1482 C.3       1 <0>        -0.0130
     17 C13         2.0625    2.3424    1.4776 C.ar      1 <0>        -0.0427
     18 C14        -3.1417    3.0597    1.1417 C.ar      1 <0>        -0.0462
     19 C15         3.0786    1.2273   -0.3882 C.ar      1 <0>         0.1219
     20 C16        -4.1766    2.2276   -0.8567 C.ar      1 <0>        -0.0599
     21 C17         3.2051    1.9532    0.7863 C.ar      1 <0>        -0.0188
     22 C18        -4.2501    2.9808    0.3052 C.ar      1 <0>        -0.0606
     23 C19         5.4527    1.2172   -0.5277 C.3       1 <0>         0.0788
     24 H1          0.7272   -1.4518   -0.8147 H         1 <0>         0.0326
     25 H2         -0.1587    0.0598   -2.5506 H         1 <0>         0.0471
     26 H3         -1.7498   -0.3484   -2.0371 H         1 <0>         0.0471
     27 H4         -2.1715   -2.0119   -0.0102 H         1 <0>         0.0429
     28 H5         -1.0553   -1.0576    0.9609 H         1 <0>         0.0429
     29 H6         -0.0569   -3.6003   -1.6983 H         1 <0>         0.0233
     30 H7          0.0623   -2.4055   -2.9867 H         1 <0>         0.0233
     31 H8         -1.5237   -2.8292   -2.3269 H         1 <0>         0.0233
     32 H9          1.7777    0.3412   -1.8050 H         1 <0>         0.0673
     33 H10        -3.0076    1.0432   -2.1355 H         1 <0>         0.0636
     34 H11        -1.2230   -2.6163    2.8474 H         1 <0>         0.0391
     35 H12        -1.0076   -4.3505    2.5222 H         1 <0>         0.0391
     36 H13        -2.4118   -3.5150    1.8786 H         1 <0>         0.0391
     37 H14         1.4381   -3.0591    0.2448 H         1 <0>         0.0391
     38 H15         1.1612   -3.8115    1.7800 H         1 <0>         0.0391
     39 H16         1.0717   -2.0493    1.6749 H         1 <0>         0.0391
     40 H17         2.1809    2.9126    2.3969 H         1 <0>         0.0630
     41 H18        -3.2179    3.6577    2.0476 H         1 <0>         0.0629
     42 H19        -5.0301    2.1763   -1.5264 H         1 <0>         0.0618
     43 H20         4.1540    2.2506    1.2185 H         1 <0>         0.0654
     44 H21        -5.1634    3.5108    0.5571 H         1 <0>         0.0618
     45 H22         5.6207    0.7567    0.4518 H         1 <0>         0.0660
     46 H23         5.5716    2.3057   -0.5005 H         1 <0>         0.0660
     47 H24         6.2240    0.8280   -1.2003 H         1 <0>         0.0660
@<TRIPOS>BOND
     1    1   11 1
     2    1   12 1
     3    2   19 1
     4    2   23 1
     5    3    6 1
     6    3    9 1
     7    3   10 1
     8    4    7 1
     9    4   15 1
    10    4   16 1
    11    5    6 1
    12    5    7 1
    13    5    8 1
    14    5   24 1
    15    6   25 1
    16    6   26 1
    17    7   27 1
    18    7   28 1
    19    8   29 1
    20    8   30 1
    21    8   31 1
    22    9   11 ar
    23    9   13 ar
    24   10   12 ar
    25   10   14 ar
    26   11   17 ar
    27   12   18 ar
    28   13   19 ar
    29   13   32 1
    30   14   20 ar
    31   14   33 1
    32   15   34 1
    33   15   35 1
    34   15   36 1
    35   16   37 1
    36   16   38 1
    37   16   39 1
    38   17   21 ar
    39   17   40 1
    40   18   22 ar
    41   18   41 1
    42   19   21 ar
    43   20   22 ar
    44   20   42 1
    45   21   43 1
    46   22   44 1
    47   23   45 1
    48   23   46 1
    49   23   47 1
