@<TRIPOS>MOLECULE
DB01582
   33    34     0     0     0
SMALL
USER_CHARGES

@<TRIPOS>ATOM
      1 S1         -0.6745    2.8259    0.4330 S.o2      1 <0>         0.0746
      2 O1         -1.5306    3.6874    1.2400 O.2       1 <0>        -0.1499
      3 O2         -0.0391    3.3820   -0.7555 O.2       1 <0>        -0.1499
      4 N1          0.5269    2.1478    1.4651 N.pl3     1 <0>        -0.1836
      5 N2          1.0832   -0.1416    1.5860 N.ar      1 <0>        -0.2185
      6 N3          2.1265    1.2942   -0.0441 N.ar      1 <0>        -0.2185
      7 N4         -3.8751   -1.9239   -1.1649 N.pl3     1 <0>        -0.3580
      8 C1         -1.6140    1.4312   -0.0362 C.ar      1 <0>         0.1087
      9 C2         -2.7133    1.0413    0.7291 C.ar      1 <0>        -0.0333
     10 C3         -1.2656    0.7066   -1.1761 C.ar      1 <0>        -0.0333
     11 C4          1.2914    1.0336    0.9729 C.ar      1 <0>         0.2352
     12 C5         -3.1156   -0.7975   -0.7852 C.ar      1 <0>         0.0247
     13 C6         -3.4639   -0.0731    0.3545 C.ar      1 <0>        -0.0392
     14 C7         -2.0164   -0.4078   -1.5506 C.ar      1 <0>        -0.0392
     15 C8          1.8161   -1.1646    1.0993 C.ar      1 <0>         0.0436
     16 C9          2.8273    0.2271   -0.4807 C.ar      1 <0>         0.0436
     17 C10         2.7124   -1.0381    0.0579 C.ar      1 <0>        -0.0194
     18 C11         1.6230   -2.4950    1.7461 C.3       1 <0>        -0.0222
     19 C12         3.7711    0.4618   -1.6119 C.3       1 <0>        -0.0222
     20 H1          0.2417    2.0343    2.4466 H         1 <0>         0.1767
     21 H2         -2.9988    1.5857    1.6247 H         1 <0>         0.0638
     22 H3         -0.4134    0.9908   -1.7869 H         1 <0>         0.0638
     23 H4         -4.3172   -0.3680    0.9600 H         1 <0>         0.0636
     24 H5         -1.7345   -0.9646   -2.4406 H         1 <0>         0.0636
     25 H6          3.2880   -1.8774   -0.3131 H         1 <0>         0.0653
     26 H7          2.5647   -2.8496    2.1767 H         1 <0>         0.0293
     27 H8          0.8839   -2.4370    2.5519 H         1 <0>         0.0293
     28 H9          1.2663   -3.2261    1.0135 H         1 <0>         0.0293
     29 H10         3.7509    1.5095   -1.9299 H         1 <0>         0.0293
     30 H11         4.7952    0.2205   -1.3100 H         1 <0>         0.0293
     31 H12         3.4960   -0.1569   -2.4720 H         1 <0>         0.0293
     32 H13        -4.6711   -2.2081   -0.6095 H         1 <0>         0.1423
     33 H14        -3.6217   -2.4505   -1.9902 H         1 <0>         0.1423
@<TRIPOS>BOND
     1    1    2 2
     2    1    3 2
     3    1    4 1
     4    1    8 1
     5    4   11 1
     6    4   20 1
     7    5   11 ar
     8    5   15 ar
     9    6   11 ar
    10    6   16 ar
    11    7   12 1
    12    7   32 1
    13    7   33 1
    14    8    9 ar
    15    8   10 ar
    16    9   13 ar
    17    9   21 1
    18   10   14 ar
    19   10   22 1
    20   12   13 ar
    21   12   14 ar
    22   13   23 1
    23   14   24 1
    24   15   17 ar
    25   15   18 1
    26   16   17 ar
    27   16   19 1
    28   17   25 1
    29   18   26 1
    30   18   27 1
    31   18   28 1
    32   19   29 1
    33   19   30 1
    34   19   31 1
