@<TRIPOS>MOLECULE
DB01602
   59    61     0     0     0
SMALL
USER_CHARGES

@<TRIPOS>ATOM
      1 S1          1.7085   -1.4057    0.7881 S.3       1 <0>        -0.1273
      2 O1         -0.0849   -0.5985   -3.1545 O.2       1 <0>        -0.2734
      3 O2         -3.1027   -0.9669   -0.0417 O.3       1 <0>        -0.4235
      4 O3         -2.3103   -3.0617   -0.6132 O.2       1 <0>        -0.2486
      5 O4          4.7073   -1.7856   -1.2201 O.2       1 <0>        -0.2737
      6 O5         -5.3784   -0.3310    0.2150 O.3       1 <0>        -0.3941
      7 O6         -6.2665    1.6548   -0.1397 O.3       1 <0>        -0.4340
      8 O7         -4.6426    0.8996   -1.5902 O.2       1 <0>        -0.2027
      9 N1          0.0723   -1.8677   -1.1709 N.am      1 <0>        -0.2708
     10 N2          2.8693   -0.5610   -1.9258 N.am      1 <0>        -0.3002
     11 N3          6.3419    0.3664   -1.7935 N.3       1 <0>        -0.3163
     12 C1          1.4049   -2.3243   -0.7652 C.3       1 <0>         0.1005
     13 C2         -0.1098   -1.4123    1.1926 C.3       1 <0>         0.0417
     14 C3         -0.7899   -1.2499   -0.1838 C.3       1 <0>         0.1382
     15 C4          1.9430   -1.6945   -2.0573 C.3       1 <0>         0.1277
     16 C5          0.4833   -1.2820   -2.3332 C.2       1 <0>         0.2402
     17 C6         -0.4193   -0.2286    2.1108 C.3       1 <0>        -0.0484
     18 C7         -0.4292   -2.7313    1.9093 C.3       1 <0>        -0.0484
     19 C8         -2.1359   -1.8891   -0.3113 C.2       1 <0>         0.3321
     20 C9          4.1954   -0.7058   -1.5112 C.2       1 <0>         0.2350
     21 C10         4.9437    0.6203   -1.4340 C.3       1 <0>         0.1079
     22 C11        -4.4735   -1.4055   -0.1167 C.3       1 <0>         0.2498
     23 C12         4.8049    1.2395   -0.0586 C.ar      1 <0>        -0.0219
     24 C13        -4.6971   -2.5095    0.9072 C.3       1 <0>         0.0101
     25 C14         3.7489    2.0977    0.1912 C.ar      1 <0>        -0.0566
     26 C15         5.7375    0.9329    0.9161 C.ar      1 <0>        -0.0566
     27 C16         3.6213    2.6681    1.4578 C.ar      1 <0>        -0.0614
     28 C17         5.6098    1.5032    2.1826 C.ar      1 <0>        -0.0614
     29 C18        -5.3555    0.7558   -0.6063 C.2       1 <0>         0.5131
     30 C19         4.5517    2.3709    2.4533 C.ar      1 <0>        -0.0617
     31 C20        -6.3767    2.8688   -0.8900 C.3       1 <0>         0.0931
     32 C21        -5.4048    3.8850   -0.3293 C.3       1 <0>        -0.0305
     33 H1          1.4778   -3.4135   -0.6964 H         1 <0>         0.0640
     34 H2         -0.8747   -0.1906   -0.4634 H         1 <0>         0.0631
     35 H3          2.3091   -2.4247   -2.7890 H         1 <0>         0.0622
     36 H4         -1.4900   -0.1886    2.3418 H         1 <0>         0.0244
     37 H5         -0.1494    0.7281    1.6486 H         1 <0>         0.0244
     38 H6          0.1182   -0.3044    3.0631 H         1 <0>         0.0244
     39 H7         -1.4831   -2.7693    2.2083 H         1 <0>         0.0244
     40 H8          0.1630   -2.8427    2.8256 H         1 <0>         0.0244
     41 H9         -0.2356   -3.6063    1.2789 H         1 <0>         0.0244
     42 H10         2.5398    0.3775   -2.1398 H         1 <0>         0.1496
     43 H11         4.5412    1.3100   -2.1866 H         1 <0>         0.0605
     44 H12        -4.7027   -1.7611   -1.1288 H         1 <0>         0.1205
     45 H13         6.3862   -0.0115   -2.7396 H         1 <0>         0.1192
     46 H14         6.8508    1.2496   -1.8238 H         1 <0>         0.1192
     47 H15        -4.2191   -3.4547    0.6431 H         1 <0>         0.0301
     48 H16        -4.3121   -2.2083    1.8884 H         1 <0>         0.0301
     49 H17        -5.7682   -2.7067    1.0276 H         1 <0>         0.0301
     50 H18         3.0188    2.3350   -0.5768 H         1 <0>         0.0621
     51 H19         6.5610    0.2471    0.7426 H         1 <0>         0.0621
     52 H20         2.7966    3.3426    1.6690 H         1 <0>         0.0618
     53 H21         6.3315    1.2684    2.9597 H         1 <0>         0.0618
     54 H22         4.4515    2.8139    3.4399 H         1 <0>         0.0618
     55 H23        -7.4028    3.2312   -0.7699 H         1 <0>         0.0696
     56 H24        -6.2156    2.7035   -1.9613 H         1 <0>         0.0696
     57 H25        -5.5049    4.8439   -0.8456 H         1 <0>         0.0262
     58 H26        -5.5824    4.0406    0.7400 H         1 <0>         0.0262
     59 H27        -4.3713    3.5391   -0.4331 H         1 <0>         0.0262
@<TRIPOS>BOND
     1    1   12 1
     2    1   13 1
     3    2   16 2
     4    3   19 1
     5    3   22 1
     6    4   19 2
     7    5   20 2
     8    6   22 1
     9    6   29 1
    10    7   29 1
    11    7   31 1
    12    8   29 2
    13    9   12 1
    14    9   14 1
    15    9   16 am
    16   10   15 1
    17   10   20 am
    18   10   42 1
    19   11   21 1
    20   11   45 1
    21   11   46 1
    22   12   15 1
    23   12   33 1
    24   13   14 1
    25   13   17 1
    26   13   18 1
    27   14   19 1
    28   14   34 1
    29   15   16 1
    30   15   35 1
    31   17   36 1
    32   17   37 1
    33   17   38 1
    34   18   39 1
    35   18   40 1
    36   18   41 1
    37   20   21 1
    38   21   23 1
    39   21   43 1
    40   22   24 1
    41   22   44 1
    42   23   25 ar
    43   23   26 ar
    44   24   47 1
    45   24   48 1
    46   24   49 1
    47   25   27 ar
    48   25   50 1
    49   26   28 ar
    50   26   51 1
    51   27   30 ar
    52   27   52 1
    53   28   30 ar
    54   28   53 1
    55   30   54 1
    56   31   32 1
    57   31   55 1
    58   31   56 1
    59   32   57 1
    60   32   58 1
    61   32   59 1
