@<TRIPOS>MOLECULE
DB01130
   71    74     0     0     0
SMALL
USER_CHARGES

@<TRIPOS>ATOM
      1 O1         -1.5880   -1.3459   -0.0787 O.3       1 <0>        -0.4188
      2 O2          1.7710    2.6511   -0.0728 O.3       1 <0>        -0.3914
      3 O3         -3.0795   -0.0056   -2.6463 O.2       1 <0>        -0.2895
      4 O4         -4.3767    1.2685   -0.5738 O.3       1 <0>        -0.4568
      5 O5         -2.8239   -2.8342    0.9908 O.3       1 <0>        -0.4340
      6 O6          6.7896   -0.6334    3.5610 O.2       1 <0>        -0.2879
      7 O7         -3.2801   -2.4084   -1.2282 O.2       1 <0>        -0.2028
      8 O8         -4.3143    2.7914    1.1585 O.2       1 <0>        -0.2509
      9 C1          0.0131    0.2704   -1.0128 C.3       1 <0>         0.0205
     10 C2          1.1032   -0.8195   -1.1153 C.3       1 <0>        -0.0281
     11 C3          2.5327   -0.2734   -0.9838 C.3       1 <0>        -0.0310
     12 C4          2.6821    0.4159    0.4184 C.3       1 <0>         0.0007
     13 C5         -1.2466   -0.6076   -1.2483 C.3       1 <0>         0.1830
     14 C6          0.1370    0.9189    0.3806 C.3       1 <0>        -0.0168
     15 C7          0.7192   -1.5865   -2.3779 C.3       1 <0>        -0.0453
     16 C8          1.5527    1.4633    0.6752 C.3       1 <0>         0.0600
     17 C9          4.1593    0.9095    0.6862 C.3       1 <0>         0.0131
     18 C10        -0.8236   -1.5863   -2.3674 C.3       1 <0>        -0.0047
     19 C11         3.5593   -1.4070   -1.1589 C.3       1 <0>        -0.0458
     20 C12         0.1136    1.3454   -2.1305 C.3       1 <0>        -0.0551
     21 C13         4.9873   -0.9387   -0.9086 C.3       1 <0>        -0.0302
     22 C14         5.0907   -0.2837    0.4448 C.2       1 <0>        -0.0559
     23 C15        -2.4906    0.1605   -1.5791 C.2       1 <0>         0.2143
     24 C16         4.6125    2.0666   -0.2324 C.3       1 <0>        -0.0520
     25 C17         4.2855    1.4256    2.1123 C.2       1 <0>        -0.0701
     26 C18         5.9288   -0.7753    1.3708 C.2       1 <0>        -0.0149
     27 C19        -2.9711    1.1421   -0.5313 C.3       1 <0>         0.1542
     28 C20         5.1166    0.9396    3.0394 C.2       1 <0>        -0.0180
     29 C21         6.0096   -0.1905    2.7249 C.2       1 <0>         0.1787
     30 C22        -2.6311   -2.2173   -0.2085 C.2       1 <0>         0.5111
     31 C23        -4.9362    2.1357    0.3340 C.2       1 <0>         0.3072
     32 C24        -3.8905   -3.7880    1.0307 C.3       1 <0>         0.0931
     33 C25        -6.4365    2.1558    0.1575 C.3       1 <0>         0.0421
     34 C26        -3.9721   -4.3787    2.4222 C.3       1 <0>        -0.0305
     35 C27        -7.1164    3.0847    1.1482 C.3       1 <0>        -0.0552
     36 H1          0.9681   -1.5267   -0.2800 H         1 <0>         0.0310
     37 H2          2.7210    0.4599   -1.7743 H         1 <0>         0.0308
     38 H3          2.4922   -0.3803    1.1589 H         1 <0>         0.0340
     39 H4         -0.5764    1.7421    0.4832 H         1 <0>         0.0297
     40 H5         -0.1042    0.1866    1.1608 H         1 <0>         0.0297
     41 H6          1.0971   -1.0900   -3.2788 H         1 <0>         0.0270
     42 H7          1.1151   -2.6075   -2.3722 H         1 <0>         0.0270
     43 H8          1.5710    1.7538    1.7316 H         1 <0>         0.0596
     44 H9         -1.1708   -1.2842   -3.3616 H         1 <0>         0.0308
     45 H10        -1.1477   -2.6195   -2.2143 H         1 <0>         0.0308
     46 H11         3.3230   -2.2315   -0.4729 H         1 <0>         0.0271
     47 H12         3.4975   -1.8153   -2.1744 H         1 <0>         0.0271
     48 H13        -0.5636    2.1832   -1.9355 H         1 <0>         0.0237
     49 H14         1.1151    1.7680   -2.2301 H         1 <0>         0.0237
     50 H15        -0.1473    0.9495   -3.1176 H         1 <0>         0.0237
     51 H16         5.6620   -1.7998   -0.9896 H         1 <0>         0.0310
     52 H17         5.2971   -0.2343   -1.6890 H         1 <0>         0.0310
     53 H18         5.6996    2.2119   -0.1771 H         1 <0>         0.0241
     54 H19         4.1643    3.0248    0.0518 H         1 <0>         0.0241
     55 H20         4.3668    1.8905   -1.2839 H         1 <0>         0.0241
     56 H21         3.6705    2.2769    2.3958 H         1 <0>         0.0582
     57 H22         1.0723    3.2843    0.1638 H         1 <0>         0.2098
     58 H23         6.5671   -1.6290    1.1686 H         1 <0>         0.0655
     59 H24        -2.6934    0.7933    0.4671 H         1 <0>         0.0780
     60 H25        -2.5124    2.1143   -0.7333 H         1 <0>         0.0780
     61 H26         5.1640    1.3670    4.0343 H         1 <0>         0.0653
     62 H27        -3.6968   -4.5828    0.3017 H         1 <0>         0.0696
     63 H28        -4.8347   -3.2899    0.7838 H         1 <0>         0.0696
     64 H29        -6.8146    1.1375    0.2969 H         1 <0>         0.0375
     65 H30        -6.6600    2.4852   -0.8626 H         1 <0>         0.0375
     66 H31        -3.0282   -4.8646    2.6905 H         1 <0>         0.0262
     67 H32        -4.1474   -3.5929    3.1645 H         1 <0>         0.0262
     68 H33        -4.7790   -5.1137    2.4884 H         1 <0>         0.0262
     69 H34        -8.2001    3.0765    0.9967 H         1 <0>         0.0235
     70 H35        -6.7618    4.1140    1.0293 H         1 <0>         0.0235
     71 H36        -6.9123    2.7774    2.1791 H         1 <0>         0.0235
@<TRIPOS>BOND
     1    1   13 1
     2    1   30 1
     3    2   16 1
     4    2   57 1
     5    3   23 2
     6    4   27 1
     7    4   31 1
     8    5   30 1
     9    5   32 1
    10    6   29 2
    11    7   30 2
    12    8   31 2
    13    9   10 1
    14    9   13 1
    15    9   14 1
    16    9   20 1
    17   10   11 1
    18   10   15 1
    19   10   36 1
    20   11   12 1
    21   11   19 1
    22   11   37 1
    23   12   16 1
    24   12   17 1
    25   12   38 1
    26   13   18 1
    27   13   23 1
    28   14   16 1
    29   14   39 1
    30   14   40 1
    31   15   18 1
    32   15   41 1
    33   15   42 1
    34   16   43 1
    35   17   22 1
    36   17   24 1
    37   17   25 1
    38   18   44 1
    39   18   45 1
    40   19   21 1
    41   19   46 1
    42   19   47 1
    43   20   48 1
    44   20   49 1
    45   20   50 1
    46   21   22 1
    47   21   51 1
    48   21   52 1
    49   22   26 2
    50   23   27 1
    51   24   53 1
    52   24   54 1
    53   24   55 1
    54   25   28 2
    55   25   56 1
    56   26   29 1
    57   26   58 1
    58   27   59 1
    59   27   60 1
    60   28   29 1
    61   28   61 1
    62   31   33 1
    63   32   34 1
    64   32   62 1
    65   32   63 1
    66   33   35 1
    67   33   64 1
    68   33   65 1
    69   34   66 1
    70   34   67 1
    71   34   68 1
    72   35   69 1
    73   35   70 1
    74   35   71 1
