@<TRIPOS>MOLECULE
DB01914
   24    23     0     0     0
SMALL
USER_CHARGES

@<TRIPOS>ATOM
      1 O1         -0.0198    1.0980    0.8765 O.3       1 <0>        -0.3865
      2 O2         -0.7734    0.4270   -1.8328 O.3       1 <0>        -0.3861
      3 O3          1.8994   -1.5199   -0.7555 O.3       1 <0>        -0.3869
      4 O4         -2.5330   -1.3921    0.7977 O.3       1 <0>        -0.3819
      5 O5          3.9630    0.1174    0.0564 O.3       1 <0>        -0.3924
      6 O6         -3.0196    1.1025    1.5871 O.2       1 <0>        -0.2982
      7 C1          0.1883   -0.1830    0.2723 C.3       1 <0>         0.1118
      8 C2         -0.9377   -0.4779   -0.7341 C.3       1 <0>         0.1159
      9 C3          1.6104   -0.1875   -0.3076 C.3       1 <0>         0.1065
     10 C4         -2.3778   -0.3987   -0.2099 C.3       1 <0>         0.1381
     11 C5          2.6928    0.1893    0.6984 C.3       1 <0>         0.0727
     12 C6         -2.7338    0.9393    0.4048 C.2       1 <0>         0.1512
     13 H1          0.1254   -0.9246    1.0778 H         1 <0>         0.0647
     14 H2         -0.7764   -1.4869   -1.1326 H         1 <0>         0.0650
     15 H3          1.6892    0.4725   -1.1785 H         1 <0>         0.0643
     16 H4         -3.0909   -0.5929   -1.0186 H         1 <0>         0.0697
     17 H5          2.7147   -0.5117    1.5387 H         1 <0>         0.0584
     18 H6          2.5616    1.2029    1.0883 H         1 <0>         0.0584
     19 H7          0.1354    1.7787    0.2001 H         1 <0>         0.2100
     20 H8         -0.8992    1.3328   -1.5058 H         1 <0>         0.2100
     21 H9         -2.7424    1.7943   -0.2928 H         1 <0>         0.1055
     22 H10         1.8414   -2.1133    0.0128 H         1 <0>         0.2100
     23 H11        -3.4769   -1.4284    1.0291 H         1 <0>         0.2105
     24 H12         3.9596    0.7619   -0.6717 H         1 <0>         0.2095
@<TRIPOS>BOND
     1    1    7 1
     2    1   19 1
     3    2    8 1
     4    2   20 1
     5    3    9 1
     6    3   22 1
     7    4   10 1
     8    4   23 1
     9    5   11 1
    10    5   24 1
    11    6   12 2
    12    7    8 1
    13    7    9 1
    14    7   13 1
    15    8   10 1
    16    8   14 1
    17    9   11 1
    18    9   15 1
    19   10   12 1
    20   10   16 1
    21   11   17 1
    22   11   18 1
    23   12   21 1
