@<TRIPOS>MOLECULE
DB01632
   35    35     0     0     0
SMALL
USER_CHARGES

@<TRIPOS>ATOM
      1 P1         -2.6616    1.3454    1.3143 P.3       1 <0>         0.4856
      2 P2          4.4904    1.4800    0.0622 P.3       1 <0>         0.4724
      3 P3         -4.3805    0.4468   -0.8972 P.3       1 <0>         0.4808
      4 O1          0.4417    0.1168    0.8096 O.3       1 <0>        -0.3400
      5 O2         -1.8563   -0.0558    1.4019 O.3       1 <0>        -0.2536
      6 O3          1.2560   -3.2196   -0.2386 O.3       1 <0>        -0.3864
      7 O4         -0.7270   -2.5189    1.5324 O.3       1 <0>        -0.3841
      8 O5          3.2008    0.6725    0.6137 O.3       1 <0>        -0.2841
      9 O6         -3.2648    1.3742   -0.1853 O.3       1 <0>        -0.1861
     10 O7         -1.5033    2.4741    1.2695 O.3       1 <0>        -0.3022
     11 O8         -3.6852    1.5516    2.3932 O.2       1 <0>        -0.2268
     12 O9          3.9836    2.0996   -1.3430 O.3       1 <0>        -0.3026
     13 O10         5.4905    0.2938   -0.3934 O.3       1 <0>        -0.3026
     14 O11         5.0782    2.4698    1.0250 O.2       1 <0>        -0.2275
     15 O12        -4.5872    1.1591   -2.3333 O.3       1 <0>        -0.3023
     16 O13        -5.7358    0.8115   -0.0957 O.3       1 <0>        -0.3023
     17 O14        -4.0399   -1.0133   -0.9504 O.2       1 <0>        -0.2271
     18 C1          0.6662   -1.9412   -0.3386 C.3       1 <0>         0.1141
     19 C2          1.4093   -0.9033    0.4932 C.3       1 <0>         0.1139
     20 C3         -0.7207   -1.8695    0.2628 C.3       1 <0>         0.1346
     21 C4         -0.8645   -0.3643    0.4389 C.3       1 <0>         0.1988
     22 C5          2.5868   -0.2819   -0.2369 C.3       1 <0>         0.0879
     23 H1          0.6250   -1.6485   -1.3953 H         1 <0>         0.0648
     24 H2          1.7631   -1.3215    1.4439 H         1 <0>         0.0647
     25 H3         -1.5011   -2.3250   -0.3510 H         1 <0>         0.0671
     26 H4         -1.1095    0.0979   -0.5243 H         1 <0>         0.0943
     27 H5          2.2418    0.2301   -1.1411 H         1 <0>         0.0592
     28 H6          3.3145   -1.0505   -0.5140 H         1 <0>         0.0592
     29 H7          2.1622   -3.1542   -0.5843 H         1 <0>         0.2100
     30 H8         -0.2591   -1.9599    2.1749 H         1 <0>         0.2101
     31 H9         -1.0720    2.7444    2.1080 H         1 <0>         0.2220
     32 H10         4.5812    2.6967   -1.8414 H         1 <0>         0.2220
     33 H11         6.3979    0.5243   -0.6862 H         1 <0>         0.2220
     34 H12        -5.1655    0.7283   -2.9983 H         1 <0>         0.2220
     35 H13        -6.5551    0.3103   -0.2953 H         1 <0>         0.2220
@<TRIPOS>BOND
     1    1    5 1
     2    1    9 1
     3    1   10 1
     4    1   11 2
     5    2    8 1
     6    2   12 1
     7    2   13 1
     8    2   14 2
     9    3    9 1
    10    3   15 1
    11    3   16 1
    12    3   17 2
    13    4   19 1
    14    4   21 1
    15    5   21 1
    16    6   18 1
    17    6   29 1
    18    7   20 1
    19    7   30 1
    20    8   22 1
    21   10   31 1
    22   12   32 1
    23   13   33 1
    24   15   34 1
    25   16   35 1
    26   18   19 1
    27   18   20 1
    28   18   23 1
    29   19   22 1
    30   19   24 1
    31   20   21 1
    32   20   25 1
    33   21   26 1
    34   22   27 1
    35   22   28 1
