@<TRIPOS>MOLECULE
DB01428
   29    30     0     0     0
SMALL
USER_CHARGES

@<TRIPOS>ATOM
      1 O1         -4.1614    0.0398    0.6670 O.3       1 <0>        -0.4950
      2 O2         -0.0814    2.4646    1.0828 O.3       1 <0>        -0.5059
      3 O3          1.3319    1.7798   -1.9367 O.2       1 <0>        -0.2865
      4 C1         -0.2823    0.7344   -0.5663 C.ar      1 <0>         0.0638
      5 C2          1.1024    0.9688   -1.0262 C.2       1 <0>         0.1966
      6 C3          2.2185    0.2484   -0.4351 C.ar      1 <0>         0.0224
      7 C4         -0.8095    1.4923    0.4648 C.ar      1 <0>         0.1311
      8 C5         -1.0254   -0.2506   -1.1945 C.ar      1 <0>        -0.0439
      9 C6         -2.8832    0.2694    0.2595 C.ar      1 <0>         0.1236
     10 C7         -2.1202    1.2579    0.8811 C.ar      1 <0>         0.0222
     11 C8         -2.3357   -0.4848   -0.7783 C.ar      1 <0>        -0.0190
     12 C9          1.9912   -0.6702    0.5900 C.ar      1 <0>        -0.0509
     13 C10         3.5163    0.4750   -0.8931 C.ar      1 <0>        -0.0509
     14 C11         3.0617   -1.3617    1.1569 C.ar      1 <0>        -0.0611
     15 C12         4.5868   -0.2166   -0.3260 C.ar      1 <0>        -0.0611
     16 C13         4.3595   -1.1349    0.6989 C.ar      1 <0>        -0.0617
     17 C14        -4.8844   -0.9868   -0.0106 C.3       1 <0>         0.0788
     18 H1         -0.6060   -0.8411   -2.0044 H         1 <0>         0.0627
     19 H2         -2.5546    1.8414    1.6892 H         1 <0>         0.0691
     20 H3         -2.8718   -1.2673   -1.3043 H         1 <0>         0.0654
     21 H4          1.0003   -0.8805    0.9803 H         1 <0>         0.0625
     22 H5          3.7231    1.1844   -1.6901 H         1 <0>         0.0625
     23 H6          2.8854   -2.0768    1.9552 H         1 <0>         0.0618
     24 H7          5.5976   -0.0403   -0.6823 H         1 <0>         0.0618
     25 H8          5.1929   -1.6734    1.1405 H         1 <0>         0.0618
     26 H9         -0.6252    2.8778    1.7750 H         1 <0>         0.2922
     27 H10        -4.4211   -1.9685    0.1352 H         1 <0>         0.0660
     28 H11        -5.0252   -0.7475   -1.0701 H         1 <0>         0.0660
     29 H12        -5.8804   -1.0331    0.4417 H         1 <0>         0.0660
@<TRIPOS>BOND
     1    1    9 1
     2    1   17 1
     3    2    7 1
     4    2   26 1
     5    3    5 2
     6    4    5 1
     7    4    7 ar
     8    4    8 ar
     9    5    6 1
    10    6   12 ar
    11    6   13 ar
    12    7   10 ar
    13    8   11 ar
    14    8   18 1
    15    9   10 ar
    16    9   11 ar
    17   10   19 1
    18   11   20 1
    19   12   14 ar
    20   12   21 1
    21   13   15 ar
    22   13   22 1
    23   14   16 ar
    24   14   23 1
    25   15   16 ar
    26   15   24 1
    27   16   25 1
    28   17   27 1
    29   17   28 1
    30   17   29 1
