@<TRIPOS>MOLECULE
DB01032
   38    38     0     0     0
SMALL
USER_CHARGES

@<TRIPOS>ATOM
      1 S1         -0.1449    0.0828    1.8154 S.o2      1 <0>         0.0609
      2 O1         -0.4548   -1.1919    2.4363 O.2       1 <0>        -0.1528
      3 O2         -0.1274    1.2861    2.6266 O.2       1 <0>        -0.1528
      4 O3          5.8965    0.7613   -0.8330 O.3       1 <0>        -0.4771
      5 O4          5.7781   -1.4945   -1.0858 O.2       1 <0>        -0.2451
      6 N1         -1.1746    0.3231    0.4532 N.pl3     1 <0>        -0.1766
      7 C1         -0.9208    1.5061   -0.4079 C.3       1 <0>         0.0203
      8 C2         -1.5609   -0.8702   -0.3421 C.3       1 <0>         0.0203
      9 C3         -2.2176    1.9703   -1.0662 C.3       1 <0>        -0.0414
     10 C4         -2.8274   -1.5014    0.2308 C.3       1 <0>        -0.0414
     11 C5          1.4538   -0.0708    1.0692 C.ar      1 <0>         0.1055
     12 C6         -3.2510    2.3779   -0.0272 C.3       1 <0>        -0.0641
     13 C7         -3.2327   -2.7397   -0.5539 C.3       1 <0>        -0.0641
     14 C8          1.9036   -1.3233    0.6941 C.ar      1 <0>        -0.0346
     15 C9          2.2186    1.0650    0.8775 C.ar      1 <0>        -0.0346
     16 C10         3.1629   -1.4445    0.1065 C.ar      1 <0>        -0.0459
     17 C11         3.4778    0.9440    0.2899 C.ar      1 <0>        -0.0459
     18 C12         3.9500   -0.3108   -0.0955 C.ar      1 <0>         0.0589
     19 C13         5.2629   -0.4371   -0.7079 C.2       1 <0>         0.3368
     20 H1         -0.5188    2.3294    0.1923 H         1 <0>         0.0444
     21 H2         -0.1792    1.2583   -1.1758 H         1 <0>         0.0444
     22 H3         -1.7023   -0.6369   -1.4017 H         1 <0>         0.0444
     23 H4         -0.7476   -1.6030   -0.3269 H         1 <0>         0.0444
     24 H5         -1.9949    2.8377   -1.6992 H         1 <0>         0.0275
     25 H6         -2.6492    1.2119   -1.7257 H         1 <0>         0.0275
     26 H7         -2.6886   -1.7747    1.2817 H         1 <0>         0.0275
     27 H8         -3.6502   -0.7787    0.2011 H         1 <0>         0.0275
     28 H9         -3.5602    1.5389    0.6013 H         1 <0>         0.0230
     29 H10        -2.8614    3.1672    0.6241 H         1 <0>         0.0230
     30 H11        -4.1460    2.7668   -0.5240 H         1 <0>         0.0230
     31 H12        -3.4261   -2.4938   -1.6030 H         1 <0>         0.0230
     32 H13        -2.4470   -3.5011   -0.5177 H         1 <0>         0.0230
     33 H14        -4.1455   -3.1730   -0.1331 H         1 <0>         0.0230
     34 H15         1.3073   -2.2180    0.8428 H         1 <0>         0.0637
     35 H16         1.8677    2.0503    1.1675 H         1 <0>         0.0637
     36 H17         3.5126   -2.4309   -0.1867 H         1 <0>         0.0626
     37 H18         4.0571    1.8523    0.1503 H         1 <0>         0.0626
     38 H19         6.7805    0.6652   -1.2473 H         1 <0>         0.2954
@<TRIPOS>BOND
     1    1    2 2
     2    1    3 2
     3    1    6 1
     4    1   11 1
     5    4   19 1
     6    4   38 1
     7    5   19 2
     8    6    7 1
     9    6    8 1
    10    7    9 1
    11    7   20 1
    12    7   21 1
    13    8   10 1
    14    8   22 1
    15    8   23 1
    16    9   12 1
    17    9   24 1
    18    9   25 1
    19   10   13 1
    20   10   26 1
    21   10   27 1
    22   11   14 ar
    23   11   15 ar
    24   12   28 1
    25   12   29 1
    26   12   30 1
    27   13   31 1
    28   13   32 1
    29   13   33 1
    30   14   16 ar
    31   14   34 1
    32   15   17 ar
    33   15   35 1
    34   16   18 ar
    35   16   36 1
    36   17   18 ar
    37   17   37 1
    38   18   19 1
