@<TRIPOS>MOLECULE
DB01142
   42    44     0     0     0
SMALL
USER_CHARGES

@<TRIPOS>ATOM
      1 O1         -3.4533   -0.6963    1.1633 O.3       1 <0>        -0.4867
      2 N1          3.8605    0.4449    0.5470 N.3       1 <0>        -0.3081
      3 C1         -0.9507    0.2486   -0.3451 C.2       1 <0>        -0.0108
      4 C2         -0.8504   -1.2282   -0.3896 C.ar      1 <0>        -0.0111
      5 C3         -2.2455    0.9815   -0.2341 C.ar      1 <0>         0.0241
      6 C4         -1.4886   -1.9760    0.6132 C.ar      1 <0>        -0.0027
      7 C5          1.5555    0.2712   -0.2682 C.3       1 <0>        -0.0211
      8 C6          0.2122    0.9275   -0.2878 C.2       1 <0>        -0.0744
      9 C7          2.5615    1.1082    0.5207 C.3       1 <0>         0.0018
     10 C8         -2.2547   -1.2597    1.6896 C.3       1 <0>         0.1152
     11 C9         -3.3646    0.4823    0.4645 C.ar      1 <0>         0.1287
     12 C10        -0.1547   -1.8916   -1.4113 C.ar      1 <0>        -0.0537
     13 C11        -1.4191   -3.3747    0.5858 C.ar      1 <0>        -0.0548
     14 C12        -2.3991    2.1987   -0.9331 C.ar      1 <0>        -0.0505
     15 C13        -4.5766    1.1944    0.4534 C.ar      1 <0>        -0.0193
     16 C14        -0.0888   -3.2850   -1.4274 C.ar      1 <0>        -0.0612
     17 C15        -0.7192   -4.0252   -0.4300 C.ar      1 <0>        -0.0614
     18 C16        -3.6036    2.9053   -0.9222 C.ar      1 <0>        -0.0610
     19 C17        -4.6938    2.4027   -0.2273 C.ar      1 <0>        -0.0583
     20 C18         4.8197    1.2223    1.3333 C.3       1 <0>        -0.0130
     21 C19         4.3634    0.2432   -0.8128 C.3       1 <0>        -0.0130
     22 H1          1.8681    0.1903   -1.3143 H         1 <0>         0.0320
     23 H2          1.5434   -0.7253    0.1848 H         1 <0>         0.0320
     24 H3          0.2127    2.0132   -0.2223 H         1 <0>         0.0579
     25 H4          2.6416    2.1150    0.0878 H         1 <0>         0.0429
     26 H5          2.1923    1.2282    1.5479 H         1 <0>         0.0429
     27 H6         -2.5555   -1.9702    2.4685 H         1 <0>         0.0748
     28 H7         -1.6432   -0.5043    2.2008 H         1 <0>         0.0748
     29 H8          0.3164   -1.3409   -2.2216 H         1 <0>         0.0624
     30 H9         -1.9118   -3.9666    1.3528 H         1 <0>         0.0622
     31 H10        -1.5833    2.6125   -1.5233 H         1 <0>         0.0625
     32 H11        -5.4424    0.8048    0.9850 H         1 <0>         0.0654
     33 H12         0.4470   -3.7932   -2.2239 H         1 <0>         0.0618
     34 H13        -0.6700   -5.1101   -0.4459 H         1 <0>         0.0618
     35 H14        -3.6893    3.8399   -1.4686 H         1 <0>         0.0618
     36 H15        -5.6356    2.9428   -0.2220 H         1 <0>         0.0619
     37 H16         5.0009    2.2137    0.9024 H         1 <0>         0.0391
     38 H17         5.7780    0.6954    1.4035 H         1 <0>         0.0391
     39 H18         4.4599    1.3525    2.3601 H         1 <0>         0.0391
     40 H19         5.4041   -0.1030   -0.7860 H         1 <0>         0.0391
     41 H20         4.3364    1.1607   -1.4117 H         1 <0>         0.0391
     42 H21         3.8203   -0.5497   -1.3363 H         1 <0>         0.0391
@<TRIPOS>BOND
     1    1   10 1
     2    1   11 1
     3    2    9 1
     4    2   20 1
     5    2   21 1
     6    3    4 1
     7    3    5 1
     8    3    8 2
     9    4    6 ar
    10    4   12 ar
    11    5   11 ar
    12    5   14 ar
    13    6   10 1
    14    6   13 ar
    15    7    8 1
    16    7    9 1
    17    7   22 1
    18    7   23 1
    19    8   24 1
    20    9   25 1
    21    9   26 1
    22   10   27 1
    23   10   28 1
    24   11   15 ar
    25   12   16 ar
    26   12   29 1
    27   13   17 ar
    28   13   30 1
    29   14   18 ar
    30   14   31 1
    31   15   19 ar
    32   15   32 1
    33   16   17 ar
    34   16   33 1
    35   17   34 1
    36   18   19 ar
    37   18   35 1
    38   19   36 1
    39   20   37 1
    40   20   38 1
    41   20   39 1
    42   21   40 1
    43   21   41 1
    44   21   42 1
