@<TRIPOS>MOLECULE
DB01359
   50    51     0     0     0
SMALL
USER_CHARGES

@<TRIPOS>ATOM
      1 O1         -0.1864   -0.8777   -0.2224 O.3       1 <0>        -0.4891
      2 O2          0.2812    1.2115   -2.0433 O.3       1 <0>        -0.3872
      3 N1          3.2997   -0.3392   -0.5716 N.3       1 <0>        -0.3088
      4 C1         -2.6049    0.6143    0.1624 C.3       1 <0>        -0.0124
      5 C2         -3.5152    1.1730   -0.9458 C.3       1 <0>        -0.0461
      6 C3         -3.1188    1.2363    1.4775 C.3       1 <0>        -0.0461
      7 C4         -4.1550    2.4096   -0.3332 C.3       1 <0>        -0.0525
      8 C5         -4.3886    1.9950    1.1087 C.3       1 <0>        -0.0525
      9 C6         -2.5525   -0.8972    0.1617 C.ar      1 <0>        -0.0026
     10 C7         -1.3508   -1.5719   -0.0297 C.ar      1 <0>         0.1240
     11 C8         -3.7292   -1.6204    0.3566 C.ar      1 <0>        -0.0548
     12 C9          4.2421    0.1408    0.4445 C.3       1 <0>         0.0108
     13 C10         1.2399    0.1682   -1.8464 C.3       1 <0>         0.1015
     14 C11         2.2466    0.6371   -0.7933 C.3       1 <0>         0.0256
     15 C12         0.5000   -1.1073   -1.4491 C.3       1 <0>         0.1166
     16 C13        -1.3144   -2.9631   -0.0282 C.ar      1 <0>        -0.0197
     17 C14        -3.6985   -3.0150    0.3589 C.ar      1 <0>        -0.0613
     18 C15         3.4952    0.3684    1.7640 C.3       1 <0>        -0.0473
     19 C16         4.8594    1.4553   -0.0447 C.3       1 <0>        -0.0473
     20 C17         5.3361   -0.9153    0.6341 C.3       1 <0>        -0.0473
     21 C18        -2.4911   -3.6863    0.1665 C.ar      1 <0>        -0.0583
     22 H1         -1.6001    1.0220   -0.0011 H         1 <0>         0.0350
     23 H2         -2.9457    1.4185   -1.8488 H         1 <0>         0.0271
     24 H3         -4.3004    0.4698   -1.2466 H         1 <0>         0.0271
     25 H4         -3.3003    0.5096    2.2761 H         1 <0>         0.0271
     26 H5         -2.3717    1.9464    1.8547 H         1 <0>         0.0271
     27 H6         -3.4626    3.2585   -0.3793 H         1 <0>         0.0265
     28 H7         -5.0811    2.6932   -0.8410 H         1 <0>         0.0265
     29 H8         -5.2581    1.3308    1.1759 H         1 <0>         0.0265
     30 H9         -4.5639    2.8519    1.7655 H         1 <0>         0.0265
     31 H10        -4.6799   -1.1190    0.5153 H         1 <0>         0.0622
     32 H11         1.7449    0.0027   -2.8056 H         1 <0>         0.0640
     33 H12         1.6801    0.8780    0.1119 H         1 <0>         0.0451
     34 H13         2.6444    1.5852   -1.1701 H         1 <0>         0.0451
     35 H14        -0.2229   -1.3485   -2.2400 H         1 <0>         0.0723
     36 H15         1.1825   -1.9557   -1.3367 H         1 <0>         0.0723
     37 H16         2.8972   -1.2238   -0.2652 H         1 <0>         0.1225
     38 H17        -0.3799   -3.4991   -0.1675 H         1 <0>         0.0654
     39 H18        -4.6142   -3.5782    0.5125 H         1 <0>         0.0618
     40 H19         2.8633    1.2625    1.7628 H         1 <0>         0.0247
     41 H20         4.2116    0.5120    2.5826 H         1 <0>         0.0247
     42 H21         2.8756   -0.4949    2.0345 H         1 <0>         0.0247
     43 H22         5.7262    1.7177    0.5751 H         1 <0>         0.0247
     44 H23         5.2229    1.3752   -1.0762 H         1 <0>         0.0247
     45 H24         4.1797    2.3114    0.0205 H         1 <0>         0.0247
     46 H25         4.9166   -1.8687    0.9761 H         1 <0>         0.0247
     47 H26         6.0729   -0.5934    1.3787 H         1 <0>         0.0247
     48 H27         5.8743   -1.1044   -0.3022 H         1 <0>         0.0247
     49 H28        -2.4669   -4.7721    0.1707 H         1 <0>         0.0619
     50 H29         0.7607    1.9962   -2.3596 H         1 <0>         0.2100
@<TRIPOS>BOND
     1    1   10 1
     2    1   15 1
     3    2   13 1
     4    2   50 1
     5    3   12 1
     6    3   14 1
     7    3   37 1
     8    4    5 1
     9    4    6 1
    10    4    9 1
    11    4   22 1
    12    5    7 1
    13    5   23 1
    14    5   24 1
    15    6    8 1
    16    6   25 1
    17    6   26 1
    18    7    8 1
    19    7   27 1
    20    7   28 1
    21    8   29 1
    22    8   30 1
    23    9   10 ar
    24    9   11 ar
    25   10   16 ar
    26   11   17 ar
    27   11   31 1
    28   12   18 1
    29   12   19 1
    30   12   20 1
    31   13   14 1
    32   13   15 1
    33   13   32 1
    34   14   33 1
    35   14   34 1
    36   15   35 1
    37   15   36 1
    38   16   21 ar
    39   16   38 1
    40   17   21 ar
    41   17   39 1
    42   18   40 1
    43   18   41 1
    44   18   42 1
    45   19   43 1
    46   19   44 1
    47   19   45 1
    48   20   46 1
    49   20   47 1
    50   20   48 1
    51   21   49 1
