@<TRIPOS>MOLECULE
DB01016
   61    63     0     0     0
SMALL
USER_CHARGES

@<TRIPOS>ATOM
      1 Cl1         1.6451    2.4182    4.4323 Cl        1 <0>        -0.0835
      2 S1         -0.1132   -4.6089    0.5572 S.o2      1 <0>         0.0756
      3 O1         -1.5397   -2.2653    2.0130 O.2       1 <0>        -0.2512
      4 O2         -0.1982   -4.8223    1.9890 O.2       1 <0>        -0.1499
      5 O3         -0.0622   -5.7368   -0.3528 O.2       1 <0>        -0.1499
      6 O4          1.8326    1.2035   -1.6500 O.2       1 <0>        -0.2701
      7 O5          0.5534    3.4667   -1.2433 O.3       1 <0>        -0.4944
      8 N1         -2.9127   -1.8023    0.2118 N.am      1 <0>        -0.2953
      9 N2         -1.3595   -3.5459    0.0680 N.am      1 <0>        -0.1693
     10 N3          3.6432    0.9210   -0.2278 N.am      1 <0>        -0.3109
     11 C1         -3.6259   -0.6967    0.8119 C.3       1 <0>         0.0246
     12 C2         -5.0692   -0.6298    0.3011 C.3       1 <0>        -0.0345
     13 C3         -2.8908    0.6268    0.5746 C.3       1 <0>        -0.0345
     14 C4         -5.1543   -0.1618   -1.1517 C.3       1 <0>        -0.0514
     15 C5         -2.9795    1.0928   -0.8786 C.3       1 <0>        -0.0514
     16 C6         -4.4255    1.1621   -1.3605 C.3       1 <0>        -0.0529
     17 C7         -1.9191   -2.5008    0.8698 C.2       1 <0>         0.3191
     18 C8          1.3181   -3.6244    0.2316 C.ar      1 <0>         0.1086
     19 C9          3.5605   -2.0829   -0.2778 C.ar      1 <0>        -0.0458
     20 C10         4.7689   -1.2528   -0.5522 C.3       1 <0>        -0.0120
     21 C11         1.8103   -2.7978    1.2268 C.ar      1 <0>        -0.0348
     22 C12         1.9206   -3.6984   -1.0124 C.ar      1 <0>        -0.0348
     23 C13         2.9403   -2.0209    0.9701 C.ar      1 <0>        -0.0567
     24 C14         3.0503   -2.9215   -1.2691 C.ar      1 <0>        -0.0567
     25 C15         4.4441    0.1323   -1.1252 C.3       1 <0>         0.0159
     26 C16         2.3840    1.3987   -0.5700 C.2       1 <0>         0.2477
     27 C17         1.6956    2.2206    0.4584 C.ar      1 <0>         0.0796
     28 C18         0.8166    3.2110    0.0693 C.ar      1 <0>         0.1323
     29 C19         1.9658    1.9592    1.7871 C.ar      1 <0>        -0.0277
     30 C20         0.1800    3.9721    1.0500 C.ar      1 <0>        -0.0178
     31 C21         1.3294    2.7205    2.7676 C.ar      1 <0>         0.0419
     32 C22         0.4364    3.7267    2.3991 C.ar      1 <0>        -0.0399
     33 C23         1.3839    4.4249   -1.8955 C.3       1 <0>         0.0788
     34 H1         -3.6565   -0.8786    1.8935 H         1 <0>         0.0499
     35 H2         -5.5524   -1.6096    0.3961 H         1 <0>         0.0283
     36 H3         -5.6377    0.0676    0.9296 H         1 <0>         0.0283
     37 H4         -3.3313    1.3988    1.2184 H         1 <0>         0.0283
     38 H5         -1.8362    0.5398    0.8631 H         1 <0>         0.0283
     39 H6         -6.2067   -0.0476   -1.4360 H         1 <0>         0.0266
     40 H7         -4.7312   -0.9228   -1.8180 H         1 <0>         0.0266
     41 H8         -2.4110    0.4097   -1.5215 H         1 <0>         0.0266
     42 H9         -2.5126    2.0795   -0.9754 H         1 <0>         0.0266
     43 H10        -4.9519    1.9570   -0.8178 H         1 <0>         0.0265
     44 H11        -4.4480    1.4323   -2.4221 H         1 <0>         0.0265
     45 H12        -3.1131   -2.0514   -0.7517 H         1 <0>         0.1506
     46 H13        -1.7633   -3.7005   -0.8643 H         1 <0>         0.1781
     47 H14         5.3489   -1.1386    0.3734 H         1 <0>         0.0328
     48 H15         5.4319   -1.7821   -1.2484 H         1 <0>         0.0328
     49 H16         1.3402   -2.7329    2.2030 H         1 <0>         0.0637
     50 H17         1.5347   -4.3379   -1.8000 H         1 <0>         0.0637
     51 H18         3.3280   -1.3746    1.7529 H         1 <0>         0.0621
     52 H19         3.5221   -2.9755   -2.2467 H         1 <0>         0.0621
     53 H20         3.9431    0.0341   -2.0944 H         1 <0>         0.0465
     54 H21         5.3756    0.6847   -1.2893 H         1 <0>         0.0465
     55 H22         4.0789    1.1961    0.6461 H         1 <0>         0.1490
     56 H23         2.6310    1.1603    2.1005 H         1 <0>         0.0641
     57 H24        -0.5179    4.7568    0.7705 H         1 <0>         0.0655
     58 H25        -0.0673    4.3273    3.1523 H         1 <0>         0.0633
     59 H26         2.4372    4.1318   -1.8414 H         1 <0>         0.0660
     60 H27         1.0887    4.4742   -2.9471 H         1 <0>         0.0660
     61 H28         1.2473    5.4141   -1.4471 H         1 <0>         0.0660
@<TRIPOS>BOND
     1    1   31 1
     2    2    4 2
     3    2    5 2
     4    2    9 1
     5    2   18 1
     6    3   17 2
     7    6   26 2
     8    7   28 1
     9    7   33 1
    10    8   11 1
    11    8   17 am
    12    8   45 1
    13    9   17 am
    14    9   46 1
    15   10   25 1
    16   10   26 am
    17   10   55 1
    18   11   12 1
    19   11   13 1
    20   11   34 1
    21   12   14 1
    22   12   35 1
    23   12   36 1
    24   13   15 1
    25   13   37 1
    26   13   38 1
    27   14   16 1
    28   14   39 1
    29   14   40 1
    30   15   16 1
    31   15   41 1
    32   15   42 1
    33   16   43 1
    34   16   44 1
    35   18   21 ar
    36   18   22 ar
    37   19   20 1
    38   19   23 ar
    39   19   24 ar
    40   20   25 1
    41   20   47 1
    42   20   48 1
    43   21   23 ar
    44   21   49 1
    45   22   24 ar
    46   22   50 1
    47   23   51 1
    48   24   52 1
    49   25   53 1
    50   25   54 1
    51   26   27 1
    52   27   28 ar
    53   27   29 ar
    54   28   30 ar
    55   29   31 ar
    56   29   56 1
    57   30   32 ar
    58   30   57 1
    59   31   32 ar
    60   32   58 1
    61   33   59 1
    62   33   60 1
    63   33   61 1
