@<TRIPOS>MOLECULE
DB01077
   19    18     0     0     0
SMALL
USER_CHARGES

@<TRIPOS>ATOM
      1 P1          1.3220   -0.6566   -0.0388 P.3       1 <0>         0.3707
      2 P2         -1.8398   -0.2094    0.1095 P.3       1 <0>         0.3707
      3 O1         -0.0654    0.4102    1.8496 O.3       1 <0>        -0.3673
      4 O2          2.5761    0.1854    0.5360 O.3       1 <0>        -0.3217
      5 O3          1.4470   -0.4621   -1.6391 O.3       1 <0>        -0.3217
      6 O4         -1.8225   -1.7641    0.5498 O.3       1 <0>        -0.3217
      7 O5         -1.8995   -0.2720   -1.5039 O.3       1 <0>        -0.3217
      8 O6          1.2476   -2.0807    0.4263 O.2       1 <0>        -0.2552
      9 O7         -2.8878    0.6325    0.7746 O.2       1 <0>        -0.2552
     10 C1         -0.1265    0.3505    0.4242 C.3       1 <0>         0.2643
     11 C2          0.0456    1.7806   -0.0944 C.3       1 <0>        -0.0129
     12 H1          0.9951    2.2150    0.2332 H         1 <0>         0.0269
     13 H2         -0.7474    2.4313    0.2893 H         1 <0>         0.0269
     14 H3          0.0098    1.8087   -1.1870 H         1 <0>         0.0269
     15 H4         -0.1673   -0.4979    2.1817 H         1 <0>         0.2117
     16 H5          3.4792   -0.1865    0.4456 H         1 <0>         0.2198
     17 H6          2.1449   -0.9522   -2.1236 H         1 <0>         0.2198
     18 H7         -0.9670   -2.2173    0.7061 H         1 <0>         0.2198
     19 H8         -2.7441   -0.5152   -1.9392 H         1 <0>         0.2198
@<TRIPOS>BOND
     1    1    4 1
     2    1    5 1
     3    1    8 2
     4    1   10 1
     5    2    6 1
     6    2    7 1
     7    2    9 2
     8    2   10 1
     9    3   10 1
    10    3   15 1
    11    4   16 1
    12    5   17 1
    13    6   18 1
    14    7   19 1
    15   10   11 1
    16   11   12 1
    17   11   13 1
    18   11   14 1
