@<TRIPOS>MOLECULE
DB01004
   31    32     0     0     0
SMALL
USER_CHARGES

@<TRIPOS>ATOM
      1 O1         -1.2702    0.6564    0.2721 O.3       1 <0>        -0.3515
      2 O2         -3.3525    1.4661    1.9072 O.3       1 <0>        -0.3924
      3 O3         -3.8163   -1.7082   -0.8261 O.3       1 <0>        -0.3924
      4 O4          5.1143    1.7980    0.6196 O.2       1 <0>        -0.2633
      5 N1          0.7951    1.2286   -0.5867 N.pl3     1 <0>        -0.2922
      6 N2          2.0613   -0.7852   -0.0801 N.pl3     1 <0>        -0.3122
      7 N3          2.4385    2.7119   -0.2162 N.2       1 <0>        -0.2286
      8 N4          4.3439   -0.3869    0.5508 N.2       1 <0>        -0.1756
      9 N5          3.4429   -2.5624    0.4441 N.pl3     1 <0>        -0.3289
     10 C1         -2.5888    0.1863    0.0275 C.3       1 <0>         0.1068
     11 C2         -0.5093    0.7167   -0.9263 C.3       1 <0>         0.1272
     12 C3          1.8959    0.5327   -0.2199 C.2       1 <0>         0.1480
     13 C4          2.8894    1.4407    0.0033 C.2       1 <0>         0.1721
     14 C5          1.1744    2.5523   -0.5707 C.cat     1 <0>         0.1001
     15 C6         -3.3302    0.1530    1.3575 C.3       1 <0>         0.0726
     16 C7         -2.5053   -1.2010   -0.5990 C.3       1 <0>         0.0726
     17 C8          4.2076    1.0002    0.4145 C.2       1 <0>         0.3021
     18 C9          3.3311   -1.2010    0.3154 C.2       1 <0>         0.1952
     19 H1         -3.1022    0.8865   -0.6440 H         1 <0>         0.0643
     20 H2         -0.9685    1.3968   -1.6521 H         1 <0>         0.0801
     21 H3         -0.3307   -0.2587   -1.3827 H         1 <0>         0.0801
     22 H4         -4.3620   -0.1948    1.2505 H         1 <0>         0.0584
     23 H5         -2.8148   -0.4883    2.0797 H         1 <0>         0.0584
     24 H6         -2.0287   -1.1973   -1.5809 H         1 <0>         0.0584
     25 H7         -1.9555   -1.8975    0.0438 H         1 <0>         0.0584
     26 H8          0.4885    3.3495   -0.8238 H         1 <0>         0.1030
     27 H9          1.3242   -1.4638   -0.2410 H         1 <0>         0.1700
     28 H10        -3.8292    2.0374    1.2812 H         1 <0>         0.2095
     29 H11        -3.7168   -2.5977   -1.2064 H         1 <0>         0.2095
     30 H12         2.6577   -3.1775    0.2614 H         1 <0>         0.1451
     31 H13         4.3166   -2.9925    0.7272 H         1 <0>         0.1451
@<TRIPOS>BOND
     1    1   10 1
     2    1   11 1
     3    2   15 1
     4    2   28 1
     5    3   16 1
     6    3   29 1
     7    4   17 2
     8    5   11 1
     9    5   12 1
    10    5   14 2
    11    6   12 2
    12    6   18 1
    13    6   27 1
    14    7   13 2
    15    7   14 1
    16    8   17 1
    17    8   18 2
    18    9   18 1
    19    9   30 1
    20    9   31 1
    21   10   15 1
    22   10   16 1
    23   10   19 1
    24   11   20 1
    25   11   21 1
    26   12   13 1
    27   13   17 1
    28   14   26 1
    29   15   22 1
    30   15   23 1
    31   16   24 1
    32   16   25 1
