@<TRIPOS>MOLECULE
DB01245
   56    55     0     0     0
SMALL
USER_CHARGES

@<TRIPOS>ATOM
      1 N1          6.9484    0.0191   -0.0430 N.4       1 <0>         0.2369
      2 N2         -6.9419   -0.0328   -0.0267 N.4       1 <0>         0.2369
      3 C1          5.6979    0.8120    0.0201 C.3       1 <0>        -0.0309
      4 C2         -5.6880   -0.8223   -0.0304 C.3       1 <0>        -0.0309
      5 C3          4.4813   -0.1055    0.0619 C.3       1 <0>        -0.0125
      6 C4         -4.4726    0.0965   -0.0120 C.3       1 <0>        -0.0125
      7 C5          3.1507    0.6537    0.0777 C.3       1 <0>        -0.0483
      8 C6         -3.1394   -0.6571   -0.0053 C.3       1 <0>        -0.0483
      9 C7          1.9286   -0.2705    0.1306 C.3       1 <0>        -0.0529
     10 C8         -1.9548    0.3129    0.0244 C.3       1 <0>        -0.0529
     11 C9          0.5982    0.4847    0.0682 C.3       1 <0>        -0.0531
     12 C10        -0.6233   -0.4403    0.0611 C.3       1 <0>        -0.0531
     13 C11         7.0733   -0.9040    1.1779 C.3       1 <0>        -0.0418
     14 C12         6.9784   -0.8554   -1.3050 C.3       1 <0>        -0.0418
     15 C13         8.1784    0.9380   -0.0719 C.3       1 <0>        -0.0418
     16 C14        -7.0603    0.8009    1.2576 C.3       1 <0>        -0.0418
     17 C15        -6.9866    0.9289   -1.2233 C.3       1 <0>        -0.0418
     18 C16        -8.1686   -0.9529   -0.1106 C.3       1 <0>        -0.0418
     19 H1          5.6631    1.4651   -0.8603 H         1 <0>         0.0815
     20 H2          5.7375    1.4448    0.9151 H         1 <0>         0.0815
     21 H3         -5.6947   -1.4812    0.8462 H         1 <0>         0.0815
     22 H4         -5.6822   -1.4495   -0.9302 H         1 <0>         0.0815
     23 H5          4.4512   -0.7703   -0.8065 H         1 <0>         0.0317
     24 H6          4.4955   -0.7359    0.9568 H         1 <0>         0.0317
     25 H7         -4.4580    0.7478   -0.8918 H         1 <0>         0.0317
     26 H8         -4.4794    0.7411    0.8724 H         1 <0>         0.0317
     27 H9          3.1282    1.3293    0.9415 H         1 <0>         0.0267
     28 H10         3.0881    1.2826   -0.8191 H         1 <0>         0.0267
     29 H11        -3.0738   -1.2946   -0.8951 H         1 <0>         0.0267
     30 H12        -3.0983   -1.3167    0.8701 H         1 <0>         0.0267
     31 H13         1.9648   -0.8669    1.0503 H         1 <0>         0.0265
     32 H14         1.9773   -0.9766   -0.7076 H         1 <0>         0.0265
     33 H15        -2.0294    0.9633    0.9042 H         1 <0>         0.0265
     34 H16        -1.9852    0.9598   -0.8606 H         1 <0>         0.0265
     35 H17         0.5785    1.1084   -0.8340 H         1 <0>         0.0265
     36 H18         0.5314    1.1655    0.9258 H         1 <0>         0.0265
     37 H19        -0.5940   -1.0783    0.9531 H         1 <0>         0.0265
     38 H20        -0.5603   -1.1075   -0.8075 H         1 <0>         0.0265
     39 H21         6.9192   -0.3053    2.0804 H         1 <0>         0.0778
     40 H22         6.3445   -1.7150    1.1071 H         1 <0>         0.0778
     41 H23         8.0805   -1.3331    1.1772 H         1 <0>         0.0778
     42 H24         6.7440   -0.2254   -2.1678 H         1 <0>         0.0778
     43 H25         7.9859   -1.2717   -1.4052 H         1 <0>         0.0778
     44 H26         6.2673   -1.6786   -1.2058 H         1 <0>         0.0778
     45 H27         8.1041    1.5763   -0.9572 H         1 <0>         0.0778
     46 H28         8.1723    1.5420    0.8402 H         1 <0>         0.0778
     47 H29         9.0798    0.3199   -0.1177 H         1 <0>         0.0778
     48 H30        -6.9037    0.1390    2.1142 H         1 <0>         0.0778
     49 H31        -6.3298    1.6129    1.2434 H         1 <0>         0.0778
     50 H32        -8.0666    1.2306    1.2917 H         1 <0>         0.0778
     51 H33        -6.7535    0.3635   -2.1302 H         1 <0>         0.0778
     52 H34        -7.9979    1.3433   -1.2876 H         1 <0>         0.0778
     53 H35        -6.2814    1.7491   -1.0683 H         1 <0>         0.0778
     54 H36        -8.1029   -1.5224   -1.0423 H         1 <0>         0.0778
     55 H37        -8.1488   -1.6237    0.7532 H         1 <0>         0.0778
     56 H38        -9.0730   -0.3375   -0.0991 H         1 <0>         0.0778
@<TRIPOS>BOND
     1    1    3 1
     2    1   13 1
     3    1   14 1
     4    1   15 1
     5    2    4 1
     6    2   16 1
     7    2   17 1
     8    2   18 1
     9    3    5 1
    10    3   19 1
    11    3   20 1
    12    4    6 1
    13    4   21 1
    14    4   22 1
    15    5    7 1
    16    5   23 1
    17    5   24 1
    18    6    8 1
    19    6   25 1
    20    6   26 1
    21    7    9 1
    22    7   27 1
    23    7   28 1
    24    8   10 1
    25    8   29 1
    26    8   30 1
    27    9   11 1
    28    9   31 1
    29    9   32 1
    30   10   12 1
    31   10   33 1
    32   10   34 1
    33   11   12 1
    34   11   35 1
    35   11   36 1
    36   12   37 1
    37   12   38 1
    38   13   39 1
    39   13   40 1
    40   13   41 1
    41   14   42 1
    42   14   43 1
    43   14   44 1
    44   15   45 1
    45   15   46 1
    46   15   47 1
    47   16   48 1
    48   16   49 1
    49   16   50 1
    50   17   51 1
    51   17   52 1
    52   17   53 1
    53   18   54 1
    54   18   55 1
    55   18   56 1
