@<TRIPOS>MOLECULE
DB01214
   49    49     0     0     0
SMALL
USER_CHARGES

@<TRIPOS>ATOM
      1 O1          1.0866   -1.7865    0.9680 O.3       1 <0>        -0.4891
      2 O2          3.7406   -2.5822    1.2027 O.3       1 <0>        -0.3872
      3 O3         -4.1194   -0.1855    0.0931 O.3       1 <0>        -0.4255
      4 O4         -3.3275    1.4139   -1.4215 O.2       1 <0>        -0.2507
      5 N1          3.1008    0.2748   -1.0643 N.3       1 <0>        -0.3112
      6 C1          3.2789   -1.9545    0.0030 C.3       1 <0>         0.1015
      7 C2          3.5736   -0.4561    0.1036 C.3       1 <0>         0.0254
      8 C3          3.3426    1.7036   -0.9177 C.3       1 <0>         0.0021
      9 C4          1.7945   -2.2686   -0.1699 C.3       1 <0>         0.1166
     10 C5         -0.2041   -1.3787    0.7622 C.ar      1 <0>         0.1242
     11 C6         -0.7637   -0.3753    1.5474 C.ar      1 <0>        -0.0024
     12 C7         -2.0805    0.0266    1.3229 C.ar      1 <0>        -0.0015
     13 C8         -2.2657   -1.5822   -0.4700 C.ar      1 <0>        -0.0043
     14 C9         -2.8315   -0.5770    0.3142 C.ar      1 <0>         0.1379
     15 C10         2.6224    2.2382    0.3169 C.3       1 <0>        -0.0499
     16 C11         2.8813    2.4286   -2.1780 C.3       1 <0>        -0.0499
     17 C12        -0.9490   -1.9842   -0.2454 C.ar      1 <0>        -0.0133
     18 C13         0.0478    0.2671    2.6271 C.3       1 <0>        -0.0359
     19 C14        -2.6924    1.1040    2.1607 C.3       1 <0>        -0.0359
     20 C15        -3.0533   -2.2406   -1.5544 C.3       1 <0>        -0.0361
     21 C16        -4.2471    0.8605   -0.8335 C.2       1 <0>         0.3092
     22 C17        -5.6940    1.2162   -1.0063 C.3       1 <0>         0.0336
     23 H1          3.8355   -2.3921   -0.8343 H         1 <0>         0.0640
     24 H2          3.1154   -0.1075    1.0341 H         1 <0>         0.0450
     25 H3          4.6554   -0.3159    0.2277 H         1 <0>         0.0450
     26 H4          4.4186    1.8901   -0.8074 H         1 <0>         0.0455
     27 H5          1.6587   -3.3559   -0.2136 H         1 <0>         0.0723
     28 H6          1.4478   -1.8218   -1.1096 H         1 <0>         0.0723
     29 H7          3.5665   -0.0757   -1.9008 H         1 <0>         0.1223
     30 H8         -0.5468   -2.7927   -0.8490 H         1 <0>         0.0658
     31 H9          2.6154    3.3346    0.3060 H         1 <0>         0.0245
     32 H10         1.5772    1.9108    0.3517 H         1 <0>         0.0245
     33 H11         3.1146    1.9506    1.2508 H         1 <0>         0.0245
     34 H12         3.4113    2.0582   -3.0627 H         1 <0>         0.0245
     35 H13         3.0784    3.5034   -2.1016 H         1 <0>         0.0245
     36 H14         1.8065    2.2955   -2.3467 H         1 <0>         0.0245
     37 H15         1.1102    0.0120    2.5688 H         1 <0>         0.0279
     38 H16        -0.3110   -0.0529    3.6109 H         1 <0>         0.0279
     39 H17        -0.0054    1.3590    2.5593 H         1 <0>         0.0279
     40 H18        -2.3331    2.0847    1.8328 H         1 <0>         0.0279
     41 H19        -3.7858    1.1109    2.1085 H         1 <0>         0.0279
     42 H20        -2.4524    0.9695    3.2206 H         1 <0>         0.0279
     43 H21         4.6952   -2.4111    1.2738 H         1 <0>         0.2100
     44 H22        -4.0416   -2.5400   -1.1899 H         1 <0>         0.0279
     45 H23        -3.1745   -1.5588   -2.4022 H         1 <0>         0.0279
     46 H24        -2.5616   -3.1482   -1.9209 H         1 <0>         0.0279
     47 H25        -6.2445    0.3496   -1.3808 H         1 <0>         0.0342
     48 H26        -5.7837    2.0282   -1.7335 H         1 <0>         0.0342
     49 H27        -6.1072    1.5532   -0.0526 H         1 <0>         0.0342
@<TRIPOS>BOND
     1    1    9 1
     2    1   10 1
     3    2    6 1
     4    2   43 1
     5    3   14 1
     6    3   21 1
     7    4   21 2
     8    5    7 1
     9    5    8 1
    10    5   29 1
    11    6    7 1
    12    6    9 1
    13    6   23 1
    14    7   24 1
    15    7   25 1
    16    8   15 1
    17    8   16 1
    18    8   26 1
    19    9   27 1
    20    9   28 1
    21   10   11 ar
    22   10   17 ar
    23   11   12 ar
    24   11   18 1
    25   12   14 ar
    26   12   19 1
    27   13   14 ar
    28   13   17 ar
    29   13   20 1
    30   15   31 1
    31   15   32 1
    32   15   33 1
    33   16   34 1
    34   16   35 1
    35   16   36 1
    36   17   30 1
    37   18   37 1
    38   18   38 1
    39   18   39 1
    40   19   40 1
    41   19   41 1
    42   19   42 1
    43   20   44 1
    44   20   45 1
    45   20   46 1
    46   21   22 1
    47   22   47 1
    48   22   48 1
    49   22   49 1
