@<TRIPOS>MOLECULE
DB01351
   34    34     0     0     0
SMALL
USER_CHARGES

@<TRIPOS>ATOM
      1 O1         -0.9183   -1.3895    2.2255 O.2       1 <0>        -0.2742
      2 O2         -0.8567    0.5717   -2.0407 O.2       1 <0>        -0.2742
      3 O3         -3.8249   -2.7818   -1.0412 O.2       1 <0>        -0.2520
      4 N1         -2.4357   -2.0150    0.6225 N.am      1 <0>        -0.2390
      5 N2         -2.4044   -1.0357   -1.5087 N.am      1 <0>        -0.2390
      6 C1         -1.1854    0.0726    0.3094 C.3       1 <0>         0.1232
      7 C2          0.2603    0.5349    0.5429 C.3       1 <0>        -0.0304
      8 C3          1.2625   -0.5626    0.1773 C.3       1 <0>        -0.0493
      9 C4         -2.1538    1.1649    0.7974 C.3       1 <0>        -0.0334
     10 C5          2.7318   -0.1257    0.3253 C.3       1 <0>        -0.0467
     11 C6         -1.4626   -1.1748    1.1426 C.2       1 <0>         0.2354
     12 C7         -1.4286   -0.1044   -1.1861 C.2       1 <0>         0.2354
     13 C8         -1.9762    2.4393    0.0032 C.3       1 <0>        -0.0639
     14 C9          2.9953    1.1099   -0.5390 C.3       1 <0>        -0.0627
     15 C10         3.7126   -1.2369   -0.0515 C.3       1 <0>        -0.0627
     16 C11        -2.9612   -1.9882   -0.6637 C.2       1 <0>         0.3122
     17 H1          0.4750    1.4175   -0.0625 H         1 <0>         0.0280
     18 H2          0.4128    0.8224    1.5911 H         1 <0>         0.0280
     19 H3          1.1190   -1.4467    0.8075 H         1 <0>         0.0268
     20 H4          1.1012   -0.8957   -0.8553 H         1 <0>         0.0268
     21 H5         -1.9927    1.3719    1.8631 H         1 <0>         0.0277
     22 H6         -3.1959    0.8328    0.7045 H         1 <0>         0.0277
     23 H7          2.9156    0.1419    1.3736 H         1 <0>         0.0295
     24 H8         -0.9762    2.8713    0.0779 H         1 <0>         0.0230
     25 H9         -2.2512    2.3368   -1.0496 H         1 <0>         0.0230
     26 H10        -2.6568    3.1973    0.4105 H         1 <0>         0.0230
     27 H11         2.5098    2.0023   -0.1330 H         1 <0>         0.0232
     28 H12         2.6534    0.9619   -1.5690 H         1 <0>         0.0232
     29 H13         4.0675    1.3340   -0.5738 H         1 <0>         0.0232
     30 H14         3.5958   -1.5297   -1.1004 H         1 <0>         0.0232
     31 H15         4.7480   -0.9133    0.0986 H         1 <0>         0.0232
     32 H16         3.5462   -2.1242    0.5681 H         1 <0>         0.0232
     33 H17        -2.7402   -2.7803    1.2178 H         1 <0>         0.1591
     34 H18        -2.6859   -1.0790   -2.4842 H         1 <0>         0.1591
@<TRIPOS>BOND
     1    1   11 2
     2    2   12 2
     3    3   16 2
     4    4   11 am
     5    4   16 am
     6    4   33 1
     7    5   12 am
     8    5   16 am
     9    5   34 1
    10    6    7 1
    11    6    9 1
    12    6   11 1
    13    6   12 1
    14    7    8 1
    15    7   17 1
    16    7   18 1
    17    8   10 1
    18    8   19 1
    19    8   20 1
    20    9   13 1
    21    9   21 1
    22    9   22 1
    23   10   14 1
    24   10   15 1
    25   10   23 1
    26   13   24 1
    27   13   25 1
    28   13   26 1
    29   14   27 1
    30   14   28 1
    31   14   29 1
    32   15   30 1
    33   15   31 1
    34   15   32 1
