@<TRIPOS>MOLECULE
DB01086
   23    23     0     0     0
SMALL
USER_CHARGES

@<TRIPOS>ATOM
      1 O1         -1.8657    0.0514    0.0009 O.3       1 <0>        -0.4614
      2 O2         -1.2911    2.2805    0.0008 O.2       1 <0>        -0.2450
      3 N1          4.3653   -0.7905   -0.0011 N.pl3     1 <0>        -0.3580
      4 C1          0.4029    0.6025    0.0013 C.ar      1 <0>         0.0591
      5 C2          1.4614    1.5108    0.0004 C.ar      1 <0>        -0.0460
      6 C3          0.6602   -0.7685    0.0013 C.ar      1 <0>        -0.0460
      7 C4          3.0348   -0.3228   -0.0004 C.ar      1 <0>         0.0246
      8 C5          2.7773    1.0483   -0.0005 C.ar      1 <0>        -0.0403
      9 C6          1.9761   -1.2312    0.0005 C.ar      1 <0>        -0.0403
     10 C7         -0.9690    1.0848    0.0013 C.2       1 <0>         0.3392
     11 C8         -3.2544    0.3996   -0.0004 C.3       1 <0>         0.0900
     12 C9         -4.0809   -0.8687   -0.0006 C.3       1 <0>        -0.0306
     13 H1          1.2829    2.5830    0.0002 H         1 <0>         0.0626
     14 H2         -0.1320   -1.5120    0.0019 H         1 <0>         0.0626
     15 H3          3.5937    1.7659   -0.0012 H         1 <0>         0.0636
     16 H4          2.1643   -2.3019    0.0006 H         1 <0>         0.0636
     17 H5         -3.4816    0.9912    0.8932 H         1 <0>         0.0695
     18 H6         -3.4801    0.9906   -0.8948 H         1 <0>         0.0695
     19 H7         -5.1500   -0.6390   -0.0016 H         1 <0>         0.0262
     20 H8         -3.8492   -1.4792   -0.8797 H         1 <0>         0.0262
     21 H9         -3.8507   -1.4785    0.8791 H         1 <0>         0.0262
     22 H10         4.5526   -1.7843   -0.0002 H         1 <0>         0.1423
     23 H11         5.1331   -0.1323   -0.0009 H         1 <0>         0.1423
@<TRIPOS>BOND
     1    1   10 1
     2    1   11 1
     3    2   10 2
     4    3    7 1
     5    3   22 1
     6    3   23 1
     7    4    5 ar
     8    4    6 ar
     9    4   10 1
    10    5    8 ar
    11    5   13 1
    12    6    9 ar
    13    6   14 1
    14    7    8 ar
    15    7    9 ar
    16    8   15 1
    17    9   16 1
    18   11   12 1
    19   11   17 1
    20   11   18 1
    21   12   19 1
    22   12   20 1
    23   12   21 1
