@<TRIPOS>MOLECULE
DB01839
   13    12     0     0     0
SMALL
USER_CHARGES

@<TRIPOS>ATOM
      1 O1          0.0363    1.4761    0.4058 O.3       1 <0>        -0.3898
      2 O2          2.2709   -0.0127   -0.2901 O.3       1 <0>        -0.3925
      3 C1         -0.1135    0.2515   -0.3111 C.3       1 <0>         0.0754
      4 C2          1.0506   -0.6612    0.0523 C.3       1 <0>         0.0699
      5 C3         -1.4490   -0.3751    0.0597 C.3       1 <0>        -0.0368
      6 H1         -0.0807    0.4931   -1.3792 H         1 <0>         0.0613
      7 H2          1.0783   -0.8697    1.1269 H         1 <0>         0.0583
      8 H3          0.9989   -1.6093   -0.4910 H         1 <0>         0.0583
      9 H4         -2.2730    0.3003   -0.1945 H         1 <0>         0.0255
     10 H5         -1.6021   -1.3228   -0.4654 H         1 <0>         0.0255
     11 H6         -1.5125   -0.5555    1.1384 H         1 <0>         0.0255
     12 H7         -0.7031    2.0553    0.1540 H         1 <0>         0.2099
     13 H8          2.2990    0.8300    0.1943 H         1 <0>         0.2095
@<TRIPOS>BOND
     1    1    3 1
     2    1   12 1
     3    2    4 1
     4    2   13 1
     5    3    4 1
     6    3    5 1
     7    3    6 1
     8    4    7 1
     9    4    8 1
    10    5    9 1
    11    5   10 1
    12    5   11 1
