@<TRIPOS>MOLECULE
DB01125
   31    33     0     0     0
SMALL
USER_CHARGES

@<TRIPOS>ATOM
      1 O1          1.1331    1.0894   -2.3718 O.2       1 <0>        -0.2909
      2 O2          1.1331    1.0825    2.3740 O.2       1 <0>        -0.2909
      3 O3         -4.7296   -0.2331   -0.0008 O.3       1 <0>        -0.4951
      4 C1          0.6418    1.4928    0.0014 C.3       1 <0>         0.1098
      5 C2          1.4132    0.9564   -1.1952 C.2       1 <0>         0.1787
      6 C3          1.4127    0.9533    1.1970 C.2       1 <0>         0.1787
      7 C4          2.5819    0.2285   -0.6958 C.ar      1 <0>         0.0289
      8 C5          2.5815    0.2267    0.6962 C.ar      1 <0>         0.0289
      9 C6         -0.7739    1.0379    0.0005 C.ar      1 <0>        -0.0291
     10 C7          3.5743   -0.4003   -1.4223 C.ar      1 <0>        -0.0506
     11 C8          3.5736   -0.4038    1.4216 C.ar      1 <0>        -0.0506
     12 C9         -1.8115    1.9731    0.0010 C.ar      1 <0>        -0.0540
     13 C10        -1.0720   -0.3270   -0.0003 C.ar      1 <0>        -0.0540
     14 C11         4.5879   -1.0416   -0.7050 C.ar      1 <0>        -0.0611
     15 C12         4.5877   -1.0432    0.7034 C.ar      1 <0>        -0.0611
     16 C13        -3.1395    1.5461    0.0010 C.ar      1 <0>        -0.0197
     17 C14        -2.3999   -0.7538   -0.0004 C.ar      1 <0>        -0.0197
     18 C15        -3.4337    0.1826    0.0003 C.ar      1 <0>         0.1201
     19 C16        -4.9600   -1.6412   -0.0013 C.3       1 <0>         0.0788
     20 H1          0.7420    2.5847    0.0029 H         1 <0>         0.0511
     21 H2          3.5758   -0.4031   -2.5062 H         1 <0>         0.0625
     22 H3          3.5747   -0.4092    2.5055 H         1 <0>         0.0625
     23 H4         -1.5980    3.0388    0.0017 H         1 <0>         0.0622
     24 H5         -0.2834   -1.0749   -0.0007 H         1 <0>         0.0622
     25 H6          5.3876   -1.5479   -1.2394 H         1 <0>         0.0618
     26 H7          5.3872   -1.5507    1.2369 H         1 <0>         0.0618
     27 H8         -3.9405    2.2802    0.0014 H         1 <0>         0.0654
     28 H9         -2.5576   -1.8270   -0.0010 H         1 <0>         0.0654
     29 H10        -4.5718   -2.1120   -0.9109 H         1 <0>         0.0660
     30 H11        -6.0446   -1.7915   -0.0017 H         1 <0>         0.0660
     31 H12        -4.5722   -2.1127    0.9080 H         1 <0>         0.0660
@<TRIPOS>BOND
     1    1    5 2
     2    2    6 2
     3    3   18 1
     4    3   19 1
     5    4    5 1
     6    4    6 1
     7    4    9 1
     8    4   20 1
     9    5    7 1
    10    6    8 1
    11    7    8 ar
    12    7   10 ar
    13    8   11 ar
    14    9   12 ar
    15    9   13 ar
    16   10   14 ar
    17   10   21 1
    18   11   15 ar
    19   11   22 1
    20   12   16 ar
    21   12   23 1
    22   13   17 ar
    23   13   24 1
    24   14   15 ar
    25   14   25 1
    26   15   26 1
    27   16   18 ar
    28   16   27 1
    29   17   18 ar
    30   17   28 1
    31   19   29 1
    32   19   30 1
    33   19   31 1
