@<TRIPOS>MOLECULE
DB01131
   33    33     0     0     0
SMALL
USER_CHARGES

@<TRIPOS>ATOM
      1 Cl1        -6.4653    2.3438    0.3087 Cl        1 <0>        -0.0835
      2 N1          2.0546    0.5505   -0.1495 N.2       1 <0>        -0.1076
      3 N2         -1.8274   -1.2503   -0.4852 N.pl3     1 <0>        -0.2432
      4 N3         -0.0242   -0.0275    0.4904 N.2       1 <0>        -0.0032
      5 N4          1.7520   -0.4862    1.9877 N.pl3     1 <0>        -0.2860
      6 N5          0.2560   -2.1577   -0.5545 N.pl3     1 <0>        -0.2883
      7 C1          3.4890    0.6327    0.0921 C.3       1 <0>         0.1098
      8 C2          4.1487   -0.6418   -0.4136 C.3       1 <0>        -0.0281
      9 C3          4.0379    1.8674   -0.6071 C.3       1 <0>        -0.0281
     10 C4         -2.9329   -0.3939   -0.2952 C.ar      1 <0>         0.1001
     11 C5          1.3257    0.0122    0.7758 C.2       1 <0>         0.4251
     12 C6         -4.2122   -0.9292   -0.1496 C.ar      1 <0>        -0.0218
     13 C7         -2.7448    0.9872   -0.2538 C.ar      1 <0>        -0.0218
     14 C8         -0.4967   -1.0768   -0.1320 C.2       1 <0>         0.3944
     15 C9         -5.3048   -0.0825    0.0371 C.ar      1 <0>        -0.0401
     16 C10        -3.8373    1.8341   -0.0667 C.ar      1 <0>        -0.0401
     17 C11        -5.1174    1.2992    0.0788 C.ar      1 <0>         0.0412
     18 H1          3.7298    0.7682    1.1524 H         1 <0>         0.0724
     19 H2          5.2342   -0.6007   -0.2748 H         1 <0>         0.0264
     20 H3          3.7757   -1.5222    0.1199 H         1 <0>         0.0264
     21 H4          3.9488   -0.7951   -1.4800 H         1 <0>         0.0264
     22 H5          5.1169    1.9630   -0.4474 H         1 <0>         0.0264
     23 H6          3.5554    2.7744   -0.2268 H         1 <0>         0.0264
     24 H7          3.8553    1.8263   -1.6866 H         1 <0>         0.0264
     25 H8         -2.0922   -2.1769   -0.8098 H         1 <0>         0.2648
     26 H9         -4.3717   -2.0041   -0.1792 H         1 <0>         0.0652
     27 H10        -1.7723    1.4451   -0.4012 H         1 <0>         0.0652
     28 H11        -6.2964   -0.5132    0.1491 H         1 <0>         0.0633
     29 H12        -3.6778    2.9092   -0.0450 H         1 <0>         0.0633
     30 H13         1.0821   -0.8741    2.6438 H         1 <0>         0.2548
     31 H14         2.7258   -0.5339    2.2610 H         1 <0>         0.2548
     32 H15        -0.1707   -2.9369   -1.0439 H         1 <0>         0.2547
     33 H16         1.2560   -2.2103   -0.3950 H         1 <0>         0.2547
@<TRIPOS>BOND
     1    1   17 1
     2    2    7 1
     3    2   11 2
     4    3   10 1
     5    3   14 1
     6    3   25 1
     7    4   11 1
     8    4   14 2
     9    5   11 1
    10    5   30 1
    11    5   31 1
    12    6   14 1
    13    6   32 1
    14    6   33 1
    15    7    8 1
    16    7    9 1
    17    7   18 1
    18    8   19 1
    19    8   20 1
    20    8   21 1
    21    9   22 1
    22    9   23 1
    23    9   24 1
    24   10   12 ar
    25   10   13 ar
    26   12   15 ar
    27   12   26 1
    28   13   16 ar
    29   13   27 1
    30   15   17 ar
    31   15   28 1
    32   16   17 ar
    33   16   29 1
