@<TRIPOS>MOLECULE
DB01182
   52    53     0     0     0
SMALL
USER_CHARGES

@<TRIPOS>ATOM
      1 O1         -3.1304    0.4972    0.5432 O.3       1 <0>        -0.4887
      2 O2         -4.8335   -1.6375    1.0663 O.3       1 <0>        -0.3872
      3 O3         -0.7592    0.5385    1.7727 O.2       1 <0>        -0.2919
      4 N1         -1.5351   -2.5118   -0.3710 N.3       1 <0>        -0.3134
      5 C1         -3.8535   -1.7339    0.0287 C.3       1 <0>         0.1015
      6 C2         -2.6067   -2.4052    0.6096 C.3       1 <0>         0.0252
      7 C3         -3.5868   -0.3339   -0.5196 C.3       1 <0>         0.1166
      8 C4         -0.3427   -3.1019    0.2222 C.3       1 <0>        -0.0043
      9 C5          0.9786    1.7112    0.5833 C.3       1 <0>         0.0146
     10 C6          1.8433    0.4495    0.6303 C.3       1 <0>        -0.0207
     11 C7          0.7738   -3.1963   -0.8146 C.3       1 <0>        -0.0433
     12 C8         -1.5420    2.2984    0.4236 C.ar      1 <0>         0.0590
     13 C9         -2.8270    1.7936    0.2236 C.ar      1 <0>         0.1311
     14 C10        -0.4876    1.4606    0.9780 C.2       1 <0>         0.1670
     15 C11         3.2716    0.7382    0.2464 C.ar      1 <0>        -0.0469
     16 C12        -1.2529    3.6216    0.0902 C.ar      1 <0>        -0.0477
     17 C13        -3.8226    2.6123   -0.3097 C.ar      1 <0>        -0.0192
     18 C14         2.0247   -3.8296   -0.2253 C.3       1 <0>        -0.0641
     19 C15        -2.2485    4.4399   -0.4434 C.ar      1 <0>        -0.0609
     20 C16         3.6671    0.6474   -1.0882 C.ar      1 <0>        -0.0586
     21 C17         4.1983    1.0970    1.2254 C.ar      1 <0>        -0.0586
     22 C18        -3.5333    3.9353   -0.6434 C.ar      1 <0>        -0.0583
     23 C19         4.9891    0.9149   -1.4439 C.ar      1 <0>        -0.0615
     24 C20         5.5203    1.3647    0.8696 C.ar      1 <0>        -0.0615
     25 C21         5.9156    1.2736   -0.4650 C.ar      1 <0>        -0.0617
     26 H1         -4.2720   -2.3638   -0.7654 H         1 <0>         0.0640
     27 H2         -2.2706   -1.8430    1.4901 H         1 <0>         0.0450
     28 H3         -2.8865   -3.4004    0.9795 H         1 <0>         0.0450
     29 H4         -4.5269    0.0626   -0.9199 H         1 <0>         0.0723
     30 H5         -2.8462   -0.3546   -1.3275 H         1 <0>         0.0723
     31 H6         -1.8461   -3.0736   -1.1628 H         1 <0>         0.1220
     32 H7          0.0020   -2.4878    1.0630 H         1 <0>         0.0424
     33 H8         -0.5677   -4.1038    0.6079 H         1 <0>         0.0424
     34 H9          1.0071    2.1182   -0.4347 H         1 <0>         0.0348
     35 H10         1.3779    2.4713    1.2657 H         1 <0>         0.0348
     36 H11         1.4241   -0.3086   -0.0390 H         1 <0>         0.0317
     37 H12         1.8161    0.0027    1.6325 H         1 <0>         0.0317
     38 H13         0.4414   -3.8036   -1.6657 H         1 <0>         0.0275
     39 H14         1.0183   -2.2046   -1.2100 H         1 <0>         0.0275
     40 H15        -0.2671    4.0496    0.2487 H         1 <0>         0.0626
     41 H16        -5.6321   -1.2401    0.6787 H         1 <0>         0.2100
     42 H17        -4.8346    2.2453   -0.4554 H         1 <0>         0.0654
     43 H18         2.8097   -3.8955   -0.9852 H         1 <0>         0.0230
     44 H19         1.8193   -4.8409    0.1398 H         1 <0>         0.0230
     45 H20         2.4092   -3.2333    0.6085 H         1 <0>         0.0230
     46 H21         2.9539    0.3700   -1.8599 H         1 <0>         0.0620
     47 H22         3.9017    1.1731    2.2681 H         1 <0>         0.0620
     48 H23        -2.0249    5.4717   -0.6989 H         1 <0>         0.0618
     49 H24        -4.3097    4.5743   -1.0539 H         1 <0>         0.0619
     50 H25         5.2968    0.8444   -2.4830 H         1 <0>         0.0618
     51 H26         6.2418    1.6446    1.6317 H         1 <0>         0.0618
     52 H27         6.9449    1.4822   -0.7419 H         1 <0>         0.0618
@<TRIPOS>BOND
     1    1    7 1
     2    1   13 1
     3    2    5 1
     4    2   41 1
     5    3   14 2
     6    4    6 1
     7    4    8 1
     8    4   31 1
     9    5    6 1
    10    5    7 1
    11    5   26 1
    12    6   27 1
    13    6   28 1
    14    7   29 1
    15    7   30 1
    16    8   11 1
    17    8   32 1
    18    8   33 1
    19    9   10 1
    20    9   14 1
    21    9   34 1
    22    9   35 1
    23   10   15 1
    24   10   36 1
    25   10   37 1
    26   11   18 1
    27   11   38 1
    28   11   39 1
    29   12   13 ar
    30   12   14 1
    31   12   16 ar
    32   13   17 ar
    33   15   20 ar
    34   15   21 ar
    35   16   19 ar
    36   16   40 1
    37   17   22 ar
    38   17   42 1
    39   18   43 1
    40   18   44 1
    41   18   45 1
    42   19   22 ar
    43   19   48 1
    44   20   23 ar
    45   20   46 1
    46   21   24 ar
    47   21   47 1
    48   22   49 1
    49   23   25 ar
    50   23   50 1
    51   24   25 ar
    52   24   51 1
    53   25   52 1
