@<TRIPOS>MOLECULE
DB01039
   46    47     0     0     0
SMALL
USER_CHARGES

@<TRIPOS>ATOM
      1 Cl1         7.9310    3.1952    0.2140 Cl        1 <0>        -0.0835
      2 O1         -1.2366   -0.8932   -1.2150 O.3       1 <0>        -0.4750
      3 O2         -4.5055   -0.2636    0.1837 O.3       1 <0>        -0.4592
      4 O3         -3.8282   -0.6423   -1.9845 O.2       1 <0>        -0.2463
      5 O4          4.6180   -2.5357    0.5144 O.2       1 <0>        -0.2867
      6 C1         -2.1806   -0.5994   -0.1940 C.3       1 <0>         0.2005
      7 C2         -2.1191   -1.7144    0.8486 C.3       1 <0>        -0.0145
      8 C3         -1.8064    0.7448    0.4225 C.3       1 <0>        -0.0145
      9 C4         -3.5808   -0.4975   -0.7932 C.2       1 <0>         0.3511
     10 C5         -5.6743    0.4520   -0.2289 C.3       1 <0>         0.0976
     11 C6          0.0587   -1.0214   -0.8758 C.ar      1 <0>         0.1221
     12 C7          0.9116    0.0923   -0.8826 C.ar      1 <0>        -0.0192
     13 C8          0.5799   -2.2716   -0.5111 C.ar      1 <0>        -0.0192
     14 C9          2.7611   -1.2898   -0.1718 C.ar      1 <0>         0.0225
     15 C10        -6.6143    0.6021    0.9574 C.3       1 <0>        -0.0280
     16 C11        -5.2607    1.8005   -0.7985 C.3       1 <0>        -0.0280
     17 C12         2.2553   -0.0411   -0.5326 C.ar      1 <0>        -0.0475
     18 C13         1.9235   -2.4052   -0.1609 C.ar      1 <0>        -0.0475
     19 C14         4.1625   -1.4283    0.1925 C.2       1 <0>         0.1931
     20 C15         5.1064   -0.2704    0.1983 C.ar      1 <0>         0.0223
     21 C16         5.2441    0.4606    1.3553 C.ar      1 <0>        -0.0495
     22 C17         5.7998    0.0185   -0.9541 C.ar      1 <0>        -0.0495
     23 C18         6.1252    1.5420    1.3601 C.ar      1 <0>        -0.0427
     24 C19         6.6809    1.0998   -0.9491 C.ar      1 <0>        -0.0427
     25 C20         6.8436    1.8616    0.2079 C.ar      1 <0>         0.0410
     26 H1         -1.1800   -1.7252    1.4110 H         1 <0>         0.0273
     27 H2         -2.2482   -2.6979    0.3823 H         1 <0>         0.0273
     28 H3         -2.9149   -1.6082    1.5951 H         1 <0>         0.0273
     29 H4         -1.7049    1.5193   -0.3469 H         1 <0>         0.0273
     30 H5         -0.8716    0.7099    0.9912 H         1 <0>         0.0273
     31 H6         -2.5721    1.0905    1.1268 H         1 <0>         0.0273
     32 H7         -6.1923   -0.1333   -0.9987 H         1 <0>         0.0728
     33 H8          0.5389    1.0687   -1.1814 H         1 <0>         0.0654
     34 H9         -0.0535   -3.1549   -0.5178 H         1 <0>         0.0654
     35 H10        -6.1294    1.1509    1.7724 H         1 <0>         0.0265
     36 H11        -6.8825   -0.3816    1.3576 H         1 <0>         0.0265
     37 H12        -7.5319    1.1277    0.6766 H         1 <0>         0.0265
     38 H13        -4.6378    2.3519   -0.0852 H         1 <0>         0.0265
     39 H14        -4.6797    1.7071   -1.7205 H         1 <0>         0.0265
     40 H15        -6.1400    2.4108   -1.0299 H         1 <0>         0.0265
     41 H16         2.8722    0.8520   -0.5591 H         1 <0>         0.0626
     42 H17         2.2939   -3.3898    0.1117 H         1 <0>         0.0626
     43 H18         4.6869    0.2149    2.2541 H         1 <0>         0.0625
     44 H19         5.6759   -0.5720   -1.8567 H         1 <0>         0.0625
     45 H20         6.2419    2.1267    2.2690 H         1 <0>         0.0632
     46 H21         7.2340    1.3371   -1.8542 H         1 <0>         0.0632
@<TRIPOS>BOND
     1    1   25 1
     2    2    6 1
     3    2   11 1
     4    3    9 1
     5    3   10 1
     6    4    9 2
     7    5   19 2
     8    6    7 1
     9    6    8 1
    10    6    9 1
    11    7   26 1
    12    7   27 1
    13    7   28 1
    14    8   29 1
    15    8   30 1
    16    8   31 1
    17   10   15 1
    18   10   16 1
    19   10   32 1
    20   11   12 ar
    21   11   13 ar
    22   12   17 ar
    23   12   33 1
    24   13   18 ar
    25   13   34 1
    26   14   17 ar
    27   14   18 ar
    28   14   19 1
    29   15   35 1
    30   15   36 1
    31   15   37 1
    32   16   38 1
    33   16   39 1
    34   16   40 1
    35   17   41 1
    36   18   42 1
    37   19   20 1
    38   20   21 ar
    39   20   22 ar
    40   21   23 ar
    41   21   43 1
    42   22   24 ar
    43   22   44 1
    44   23   25 ar
    45   23   45 1
    46   24   25 ar
    47   24   46 1
