@<TRIPOS>MOLECULE
DB01204
   60    62     0     0     0
SMALL
USER_CHARGES

@<TRIPOS>ATOM
      1 O1         -2.6134    2.5466   -0.0394 O.2       1 <0>        -0.2864
      2 O2          2.7280    2.4380    0.0447 O.2       1 <0>        -0.2864
      3 O3         -2.6477    5.0980   -0.0511 O.3       1 <0>        -0.5060
      4 O4          2.8662    4.9858    0.0398 O.3       1 <0>        -0.5060
      5 O5         -9.3849   -2.9607   -0.0403 O.3       1 <0>        -0.3938
      6 O6          9.2690   -3.3415    0.0977 O.3       1 <0>        -0.3938
      7 N1         -2.8025   -0.0334   -0.0315 N.pl3     1 <0>        -0.3421
      8 N2          2.8115   -0.1480    0.0563 N.pl3     1 <0>        -0.3421
      9 N3         -5.7799   -2.2217   -0.0620 N.3       1 <0>        -0.3123
     10 N4          5.6971   -2.4557    0.1081 N.3       1 <0>        -0.3123
     11 C1         -0.6669    1.2212   -0.0040 C.ar      1 <0>         0.0558
     12 C2          0.7292    1.1929    0.0174 C.ar      1 <0>         0.0558
     13 C3         -1.3896    0.0222   -0.0106 C.ar      1 <0>         0.0389
     14 C4          1.4024   -0.0346    0.0325 C.ar      1 <0>         0.0389
     15 C5         -0.6150    3.7668   -0.0124 C.ar      1 <0>         0.0780
     16 C6          0.7811    3.7384    0.0094 C.ar      1 <0>         0.0780
     17 C7         -1.3899    2.5093   -0.0197 C.2       1 <0>         0.1999
     18 C8          1.5041    2.4504    0.0249 C.2       1 <0>         0.1999
     19 C9         -0.7146   -1.1987    0.0043 C.ar      1 <0>        -0.0384
     20 C10         0.6783   -1.2272    0.0259 C.ar      1 <0>        -0.0384
     21 C11        -3.5275   -1.2640   -0.0377 C.3       1 <0>         0.0217
     22 C12         3.4858   -1.4070    0.0728 C.3       1 <0>         0.0217
     23 C13        -1.2882    4.9943   -0.0274 C.ar      1 <0>         0.1286
     24 C14         1.5038    4.9375    0.0168 C.ar      1 <0>         0.1286
     25 C15        -5.0234   -0.9762   -0.0280 C.3       1 <0>         0.0115
     26 C16         4.9923   -1.1807    0.0636 C.3       1 <0>         0.0115
     27 C17        -0.5641    6.1867   -0.0203 C.ar      1 <0>        -0.0160
     28 C18         0.8289    6.1584    0.0019 C.ar      1 <0>        -0.0160
     29 C19        -7.2124   -1.9601   -0.0639 C.3       1 <0>         0.0192
     30 C20         7.1391   -2.2529    0.1103 C.3       1 <0>         0.0192
     31 C21        -7.9959   -3.2630   -0.0554 C.3       1 <0>         0.0567
     32 C22         7.8689   -3.5868    0.1130 C.3       1 <0>         0.0567
     33 H1         -1.2193   -2.1598   -0.0014 H         1 <0>         0.0637
     34 H2          1.1432   -2.2080    0.0383 H         1 <0>         0.0637
     35 H3         -3.3122    0.8409   -0.0480 H         1 <0>         0.1461
     36 H4          3.3566    0.7049    0.0647 H         1 <0>         0.1461
     37 H5         -3.2849   -1.8487   -0.9341 H         1 <0>         0.0474
     38 H6         -3.2815   -1.8622    0.8490 H         1 <0>         0.0474
     39 H7          3.2169   -2.0012   -0.8098 H         1 <0>         0.0474
     40 H8          3.2183   -1.9745    0.9732 H         1 <0>         0.0474
     41 H9         -5.2792   -0.3981    0.8692 H         1 <0>         0.0439
     42 H10        -5.2788   -0.3592   -0.8991 H         1 <0>         0.0439
     43 H11         5.2726   -0.6203   -0.8377 H         1 <0>         0.0439
     44 H12         5.2715   -0.5681    0.9303 H         1 <0>         0.0439
     45 H13        -1.0796    7.1435   -0.0322 H         1 <0>         0.0655
     46 H14         1.3738    7.0990    0.0074 H         1 <0>         0.0655
     47 H15        -5.5345   -2.7953    0.7446 H         1 <0>         0.1221
     48 H16         5.4297   -3.0250   -0.6945 H         1 <0>         0.1221
     49 H17        -7.5029   -1.3639    0.8105 H         1 <0>         0.0446
     50 H18        -7.4982   -1.3776   -0.9487 H         1 <0>         0.0446
     51 H19         7.4515   -1.6743   -0.7683 H         1 <0>         0.0446
     52 H20         7.4476   -1.6756    0.9908 H         1 <0>         0.0446
     53 H21        -3.0602    4.2216   -0.0575 H         1 <0>         0.2922
     54 H22         3.1610    5.9125    0.0413 H         1 <0>         0.2922
     55 H23        -7.7798   -3.8590   -0.9485 H         1 <0>         0.0570
     56 H24        -7.7634   -3.8586    0.8338 H         1 <0>         0.0570
     57 H25         7.6349   -4.1648    1.0127 H         1 <0>         0.0570
     58 H26         7.6140   -4.1926   -0.7631 H         1 <0>         0.0570
     59 H27        -9.8612   -3.8084   -0.0356 H         1 <0>         0.2095
     60 H28         9.4745   -2.8617   -0.7228 H         1 <0>         0.2095
@<TRIPOS>BOND
     1    1   17 2
     2    2   18 2
     3    3   23 1
     4    3   53 1
     5    4   24 1
     6    4   54 1
     7    5   31 1
     8    5   59 1
     9    6   32 1
    10    6   60 1
    11    7   13 1
    12    7   21 1
    13    7   35 1
    14    8   14 1
    15    8   22 1
    16    8   36 1
    17    9   25 1
    18    9   29 1
    19    9   47 1
    20   10   26 1
    21   10   30 1
    22   10   48 1
    23   11   12 ar
    24   11   13 ar
    25   11   17 1
    26   12   14 ar
    27   12   18 1
    28   13   19 ar
    29   14   20 ar
    30   15   16 ar
    31   15   17 1
    32   15   23 ar
    33   16   18 1
    34   16   24 ar
    35   19   20 ar
    36   19   33 1
    37   20   34 1
    38   21   25 1
    39   21   37 1
    40   21   38 1
    41   22   26 1
    42   22   39 1
    43   22   40 1
    44   23   27 ar
    45   24   28 ar
    46   25   41 1
    47   25   42 1
    48   26   43 1
    49   26   44 1
    50   27   28 ar
    51   27   45 1
    52   28   46 1
    53   29   31 1
    54   29   49 1
    55   29   50 1
    56   30   32 1
    57   30   51 1
    58   30   52 1
    59   31   55 1
    60   31   56 1
    61   32   57 1
    62   32   58 1
