@<TRIPOS>MOLECULE
DB01625
   59    60     0     0     0
SMALL
USER_CHARGES

@<TRIPOS>ATOM
      1 O1         -0.9355    0.6512   -2.7518 O.2       1 <0>        -0.2747
      2 N1          2.3249   -0.0652    0.1968 N.4       1 <0>         0.2447
      3 N2         -1.6378   -1.4856   -2.3752 N.am      1 <0>        -0.3283
      4 C1          1.0707    0.4498   -0.4114 C.3       1 <0>        -0.0283
      5 C2          3.5412    0.7060   -0.3319 C.3       1 <0>        -0.0248
      6 C3          2.5190   -1.5507   -0.1339 C.3       1 <0>        -0.0248
      7 C4         -0.1158   -0.3275    0.1709 C.3       1 <0>         0.0096
      8 C5          2.2896    0.0846    1.7233 C.3       1 <0>        -0.0408
      9 C6         -1.5266    0.0566   -0.4298 C.3       1 <0>         0.1012
     10 C7          3.3656    2.1767    0.0102 C.3       1 <0>        -0.0218
     11 C8          4.7952    0.1151    0.2922 C.3       1 <0>        -0.0218
     12 C9          1.3835   -2.3381    0.5001 C.3       1 <0>        -0.0218
     13 C10         2.5550   -1.7072   -1.6456 C.3       1 <0>        -0.0218
     14 C11        -2.6453   -0.8475    0.1683 C.ar      1 <0>        -0.0280
     15 C12        -1.9353    1.5290   -0.1414 C.ar      1 <0>        -0.0280
     16 C13        -1.3565   -0.1965   -1.9644 C.2       1 <0>         0.2256
     17 C14        -3.9108   -0.6872   -0.3120 C.ar      1 <0>        -0.0573
     18 C15        -1.5073    2.0886    1.0268 C.ar      1 <0>        -0.0573
     19 C16        -2.2867   -1.7403    1.1337 C.ar      1 <0>        -0.0573
     20 C17        -2.6969    2.1698   -1.0744 C.ar      1 <0>        -0.0573
     21 C18        -4.9127   -1.4964    0.2238 C.ar      1 <0>        -0.0615
     22 C19        -1.8742    3.4092    1.2857 C.ar      1 <0>        -0.0615
     23 C20        -3.2885   -2.5496    1.6695 C.ar      1 <0>        -0.0615
     24 C21        -3.0637    3.4904   -0.8156 C.ar      1 <0>        -0.0615
     25 C22        -4.6014   -2.4276    1.2146 C.ar      1 <0>        -0.0617
     26 C23        -2.6524    4.1101    0.3645 C.ar      1 <0>        -0.0617
     27 H1          1.1532    0.4353   -1.4984 H         1 <0>         0.0816
     28 H2          0.9424    1.4920   -0.1145 H         1 <0>         0.0816
     29 H3          3.5698    0.6308   -1.4220 H         1 <0>         0.0846
     30 H4          3.4423   -1.9085    0.3254 H         1 <0>         0.0846
     31 H5         -0.1721   -0.2689    1.2529 H         1 <0>         0.0333
     32 H6         -0.1250   -1.3111   -0.2409 H         1 <0>         0.0333
     33 H7          1.4517   -0.4170    2.1972 H         1 <0>         0.0778
     34 H8          3.1786   -0.3593    2.1727 H         1 <0>         0.0778
     35 H9          2.1882    1.1359    1.9953 H         1 <0>         0.0778
     36 H10         4.2263    2.7235   -0.3994 H         1 <0>         0.0284
     37 H11         2.4993    2.6494   -0.4572 H         1 <0>         0.0284
     38 H12         3.3801    2.4068    1.0775 H         1 <0>         0.0284
     39 H13         5.6487    0.7112   -0.0617 H         1 <0>         0.0284
     40 H14         4.8627    0.1819    1.3792 H         1 <0>         0.0284
     41 H15         5.0397   -0.8960   -0.0391 H         1 <0>         0.0284
     42 H16         1.9014   -3.2438    0.8711 H         1 <0>         0.0284
     43 H17         0.7245   -2.8517   -0.2148 H         1 <0>         0.0284
     44 H18         0.9140   -2.0516    1.4363 H         1 <0>         0.0284
     45 H19         2.6900   -2.7735   -1.8728 H         1 <0>         0.0284
     46 H20         1.6299   -1.4287   -2.1555 H         1 <0>         0.0284
     47 H21         3.3993   -1.2148   -2.1311 H         1 <0>         0.0284
     48 H22        -4.1830   -0.0023   -1.1036 H         1 <0>         0.0621
     49 H23        -0.9249    1.5723    1.7782 H         1 <0>         0.0621
     50 H24        -1.3030   -1.8968    1.5444 H         1 <0>         0.0621
     51 H25        -3.0492    1.7215   -1.9955 H         1 <0>         0.0621
     52 H26        -1.9087   -2.2321   -1.7448 H         1 <0>         0.1450
     53 H27        -1.5389   -1.7441   -3.3514 H         1 <0>         0.1450
     54 H28        -5.9336   -1.4076   -0.1359 H         1 <0>         0.0618
     55 H29        -1.5592    3.8902    2.2072 H         1 <0>         0.0618
     56 H30        -3.0479   -3.2749    2.4414 H         1 <0>         0.0618
     57 H31        -3.6728    4.0356   -1.5308 H         1 <0>         0.0618
     58 H32        -5.3811   -3.0589    1.6306 H         1 <0>         0.0618
     59 H33        -2.9399    5.1377    0.5670 H         1 <0>         0.0618
@<TRIPOS>BOND
     1    1   16 2
     2    2    4 1
     3    2    5 1
     4    2    6 1
     5    2    8 1
     6    3   16 am
     7    3   52 1
     8    3   53 1
     9    4    7 1
    10    4   27 1
    11    4   28 1
    12    5   10 1
    13    5   11 1
    14    5   29 1
    15    6   12 1
    16    6   13 1
    17    6   30 1
    18    7    9 1
    19    7   31 1
    20    7   32 1
    21    8   33 1
    22    8   34 1
    23    8   35 1
    24    9   14 1
    25    9   15 1
    26    9   16 1
    27   10   36 1
    28   10   37 1
    29   10   38 1
    30   11   39 1
    31   11   40 1
    32   11   41 1
    33   12   42 1
    34   12   43 1
    35   12   44 1
    36   13   45 1
    37   13   46 1
    38   13   47 1
    39   14   17 ar
    40   14   19 ar
    41   15   18 ar
    42   15   20 ar
    43   17   21 ar
    44   17   48 1
    45   18   22 ar
    46   18   49 1
    47   19   23 ar
    48   19   50 1
    49   20   24 ar
    50   20   51 1
    51   21   25 ar
    52   21   54 1
    53   22   26 ar
    54   22   55 1
    55   23   25 ar
    56   23   56 1
    57   24   26 ar
    58   24   57 1
    59   25   58 1
    60   26   59 1
