@<TRIPOS>MOLECULE
DB01394
   54    56     0     0     0
SMALL
USER_CHARGES

@<TRIPOS>ATOM
      1 O1          0.6365   -1.6572   -1.8190 O.3       1 <0>        -0.4907
      2 O2          3.3304   -1.8159   -1.3694 O.3       1 <0>        -0.4885
      3 O3          4.3989   -0.9185    1.0173 O.3       1 <0>        -0.4913
      4 O4         -5.4133   -1.8817   -0.8553 O.3       1 <0>        -0.4913
      5 O5         -4.5903    0.4297   -2.1693 O.2       1 <0>        -0.2840
      6 O6         -0.2054    4.6087    0.5153 O.2       1 <0>        -0.2761
      7 N1         -0.0965    2.3605   -0.0763 N.am      1 <0>        -0.3087
      8 C1         -1.1531    1.8786    0.7910 C.3       1 <0>         0.0493
      9 C2         -0.6625    1.6928    2.2443 C.3       1 <0>        -0.0263
     10 C3         -0.0537    0.3422    2.6375 C.3       1 <0>        -0.0249
     11 C4         -1.8597    0.6938    0.1265 C.2       1 <0>        -0.0157
     12 C5          0.8417   -0.2476    1.5817 C.ar      1 <0>        -0.0324
     13 C6          0.2899   -0.7139    0.3711 C.ar      1 <0>         0.0312
     14 C7         -1.1803   -0.6116    0.1404 C.2       1 <0>        -0.0088
     15 C8          1.1367   -1.2363   -0.6193 C.ar      1 <0>         0.1731
     16 C9          2.2259   -0.3243    1.7845 C.ar      1 <0>        -0.0123
     17 C10        -3.0268    0.9458   -0.4955 C.2       1 <0>        -0.0057
     18 C11        -1.7994   -1.8043    0.0449 C.2       1 <0>        -0.0500
     19 C12         2.5127   -1.3083   -0.4030 C.ar      1 <0>         0.2041
     20 C13         3.0557   -0.8546    0.7968 C.ar      1 <0>         0.1655
     21 C14        -3.9279    0.0184   -1.2188 C.2       1 <0>         0.2206
     22 C15         0.2825    3.6881   -0.1351 C.2       1 <0>         0.2104
     23 C16        -3.2018   -2.0913   -0.1046 C.2       1 <0>        -0.0155
     24 C17        -4.1446   -1.3493   -0.6916 C.2       1 <0>         0.1665
     25 C18         1.4188    3.9104   -1.0969 C.3       1 <0>         0.0122
     26 C19         0.5547   -0.7140   -2.8655 C.3       1 <0>         0.0790
     27 C20         4.3338   -0.9728   -1.8958 C.3       1 <0>         0.0791
     28 C21         4.9166   -2.0888    1.6162 C.3       1 <0>         0.0790
     29 C22        -6.2310   -1.5654    0.2519 C.3       1 <0>         0.0790
     30 H1         -1.8667    2.7133    0.8543 H         1 <0>         0.0548
     31 H2         -1.5103    1.8684    2.9205 H         1 <0>         0.0289
     32 H3          0.0675    2.4793    2.4790 H         1 <0>         0.0289
     33 H4          0.4959    0.4638    3.5798 H         1 <0>         0.0314
     34 H5         -0.8517   -0.3755    2.8693 H         1 <0>         0.0314
     35 H6          0.4026    1.6935   -0.6575 H         1 <0>         0.1493
     36 H7          2.6612    0.0353    2.7140 H         1 <0>         0.0658
     37 H8         -3.3898    1.9727   -0.5292 H         1 <0>         0.0660
     38 H9         -1.2098   -2.7192    0.1255 H         1 <0>         0.0625
     39 H10        -3.4782   -3.0897    0.2337 H         1 <0>         0.0655
     40 H11         1.1792    3.4739   -2.0708 H         1 <0>         0.0322
     41 H12         2.3273    3.4462   -0.7032 H         1 <0>         0.0322
     42 H13         1.5897    4.9829   -1.2251 H         1 <0>         0.0322
     43 H14         1.5444   -0.3216   -3.1196 H         1 <0>         0.0660
     44 H15        -0.1108    0.1132   -2.6002 H         1 <0>         0.0660
     45 H16         0.1460   -1.2120   -3.7493 H         1 <0>         0.0660
     46 H17         4.4613   -1.2138   -2.9553 H         1 <0>         0.0660
     47 H18         4.0701    0.0882   -1.8207 H         1 <0>         0.0660
     48 H19         5.2875   -1.1589   -1.3935 H         1 <0>         0.0660
     49 H20         4.4976   -2.2286    2.6179 H         1 <0>         0.0660
     50 H21         4.7054   -2.9685    0.9998 H         1 <0>         0.0660
     51 H22         6.0012   -1.9824    1.7064 H         1 <0>         0.0660
     52 H23        -7.2242   -1.9893    0.0751 H         1 <0>         0.0660
     53 H24        -5.8395   -2.0029    1.1771 H         1 <0>         0.0660
     54 H25        -6.3444   -0.4817    0.3679 H         1 <0>         0.0660
@<TRIPOS>BOND
     1    1   15 1
     2    1   26 1
     3    2   19 1
     4    2   27 1
     5    3   20 1
     6    3   28 1
     7    4   24 1
     8    4   29 1
     9    5   21 2
    10    6   22 2
    11    7    8 1
    12    7   22 am
    13    7   35 1
    14    8    9 1
    15    8   11 1
    16    8   30 1
    17    9   10 1
    18    9   31 1
    19    9   32 1
    20   10   12 1
    21   10   33 1
    22   10   34 1
    23   11   14 1
    24   11   17 2
    25   12   13 ar
    26   12   16 ar
    27   13   14 1
    28   13   15 ar
    29   14   18 2
    30   15   19 ar
    31   16   20 ar
    32   16   36 1
    33   17   21 1
    34   17   37 1
    35   18   23 1
    36   18   38 1
    37   19   20 ar
    38   21   24 1
    39   22   25 1
    40   23   24 2
    41   23   39 1
    42   25   40 1
    43   25   41 1
    44   25   42 1
    45   26   43 1
    46   26   44 1
    47   26   45 1
    48   27   46 1
    49   27   47 1
    50   27   48 1
    51   28   49 1
    52   28   50 1
    53   28   51 1
    54   29   52 1
    55   29   53 1
    56   29   54 1
