@<TRIPOS>MOLECULE
DB01075
   40    41     0     0     0
SMALL
USER_CHARGES

@<TRIPOS>ATOM
      1 O1          0.5843   -0.1822   -0.1309 O.3       1 <0>        -0.3661
      2 N1          3.4078   -0.5287   -0.0344 N.3       1 <0>        -0.3062
      3 C1         -0.6994   -0.1244    0.4758 C.3       1 <0>         0.1087
      4 C2         -1.3727    1.1915    0.1452 C.ar      1 <0>        -0.0145
      5 C3         -1.5475   -1.3284    0.1140 C.ar      1 <0>        -0.0145
      6 C4          1.4243    0.8704    0.3244 C.3       1 <0>         0.0616
      7 C5          2.7756    0.7488   -0.3617 C.3       1 <0>         0.0218
      8 C6         -2.2640    1.7390    1.0506 C.ar      1 <0>        -0.0558
      9 C7         -2.4937   -1.7798    1.0155 C.ar      1 <0>        -0.0558
     10 C8         -1.0805    1.8158   -1.0543 C.ar      1 <0>        -0.0558
     11 C9         -1.3539   -1.9446   -1.1085 C.ar      1 <0>        -0.0558
     12 C10         3.5743   -0.6606    1.4126 C.3       1 <0>        -0.0130
     13 C11         4.6990   -0.6482   -0.7105 C.3       1 <0>        -0.0130
     14 C12        -2.8838    2.9510    0.7465 C.ar      1 <0>        -0.0614
     15 C13        -3.2740   -2.8872    0.6828 C.ar      1 <0>        -0.0614
     16 C14        -1.7004    3.0279   -1.3584 C.ar      1 <0>        -0.0614
     17 C15        -2.1343   -3.0518   -1.4413 C.ar      1 <0>        -0.0614
     18 C16        -2.6020    3.5954   -0.4581 C.ar      1 <0>        -0.0617
     19 C17        -3.0943   -3.5230   -0.5456 C.ar      1 <0>        -0.0617
     20 H1         -0.5247   -0.1698    1.5613 H         1 <0>         0.0697
     21 H2          1.0521    1.8650    0.0687 H         1 <0>         0.0573
     22 H3          1.5052    0.8573    1.4170 H         1 <0>         0.0573
     23 H4          2.6201    0.8000   -1.4468 H         1 <0>         0.0449
     24 H5          3.4121    1.5954   -0.0744 H         1 <0>         0.0449
     25 H6         -2.4872    1.2505    1.9942 H         1 <0>         0.0621
     26 H7         -2.6397   -1.2968    1.9769 H         1 <0>         0.0621
     27 H8         -0.4095    1.3820   -1.7900 H         1 <0>         0.0621
     28 H9         -0.6190   -1.5883   -1.8241 H         1 <0>         0.0621
     29 H10         2.6226   -0.8467    1.9197 H         1 <0>         0.0391
     30 H11         4.0613    0.2129    1.8614 H         1 <0>         0.0391
     31 H12         4.1903   -1.5378    1.6461 H         1 <0>         0.0391
     32 H13         5.1484   -1.6279   -0.5137 H         1 <0>         0.0391
     33 H14         5.4065    0.1263   -0.3924 H         1 <0>         0.0391
     34 H15         4.5735   -0.5757   -1.7967 H         1 <0>         0.0391
     35 H16        -3.5851    3.3935    1.4478 H         1 <0>         0.0618
     36 H17        -4.0206   -3.2547    1.3805 H         1 <0>         0.0618
     37 H18        -1.4870    3.5261   -2.2998 H         1 <0>         0.0618
     38 H19        -1.9962   -3.5458   -2.3986 H         1 <0>         0.0618
     39 H20        -3.0858    4.5383   -0.6957 H         1 <0>         0.0618
     40 H21        -3.7021   -4.3849   -0.8048 H         1 <0>         0.0618
@<TRIPOS>BOND
     1    1    3 1
     2    1    6 1
     3    2    7 1
     4    2   12 1
     5    2   13 1
     6    3    4 1
     7    3    5 1
     8    3   20 1
     9    4    8 ar
    10    4   10 ar
    11    5    9 ar
    12    5   11 ar
    13    6    7 1
    14    6   21 1
    15    6   22 1
    16    7   23 1
    17    7   24 1
    18    8   14 ar
    19    8   25 1
    20    9   15 ar
    21    9   26 1
    22   10   16 ar
    23   10   27 1
    24   11   17 ar
    25   11   28 1
    26   12   29 1
    27   12   30 1
    28   12   31 1
    29   13   32 1
    30   13   33 1
    31   13   34 1
    32   14   18 ar
    33   14   35 1
    34   15   19 ar
    35   15   36 1
    36   16   18 ar
    37   16   37 1
    38   17   19 ar
    39   17   38 1
    40   18   39 1
    41   19   40 1
