@<TRIPOS>MOLECULE
DB01055
 14 14 0 0 0
SMALL
GASTEIGER

@<TRIPOS>ATOM
      1 O           2.0930    2.2193    0.0000 O.co2   1  UNL1       -0.2440
      2 O           4.9509   -1.9058    0.0000 O.3     1  UNL1       -0.2815
      3 OXT         3.5220    2.2193    0.0000 O.co2   1  UNL1       -0.2440
      4 O           3.5220   -2.7308    0.0000 O.2     1  UNL1       -0.2830
      5 N           3.5220   -0.2558    0.0000 N.ar    1  UNL1       -0.3201
      6 N           2.0930    0.5693    0.0000 N.3     1  UNL1       -0.1187
      7 C           3.5220    0.5693    0.0000 C.3     1  UNL1        0.1367
      8 CA          2.8075    0.9818    0.0000 C.3     1  UNL1        0.2167
      9 C           4.2365   -0.6683    0.0000 C.ar    1  UNL1        0.1219
     10 C           2.8075   -0.6683    0.0000 C.ar    1  UNL1        0.0795
     11 C           2.8075    1.8068    0.0000 C.2     1  UNL1        0.3838
     12 C           4.2365   -1.4933    0.0000 C.ar    1  UNL1        0.2514
     13 C           2.8075   -1.4933    0.0000 C.ar    1  UNL1        0.0641
     14 C           3.5220   -1.9058    0.0000 C.ar    1  UNL1        0.2373
@<TRIPOS>BOND
     1     1    11   ar
     2     2    12    1
     3     3    11   ar
     4     4    14    2
     5     5     7    1
     6     5     9   ar
     7     5    10   ar
     8     8     6    1
     9     7     8    1
    10     8    11    1
    11     9    12   ar
    12    10    13   ar
    13    12    14   ar
    14    13    14   ar
