@<TRIPOS>MOLECULE
DB01007
   36    38     0     0     0
SMALL
USER_CHARGES

@<TRIPOS>ATOM
      1 Cl1         1.9874    0.8512   -2.8517 Cl        1 <0>        -0.0831
      2 Cl2         6.0988   -0.2772    0.4336 Cl        1 <0>        -0.0835
      3 Cl3         0.8840   -3.4749    1.6235 Cl        1 <0>        -0.0755
      4 S1         -1.7424   -4.6832    0.9754 S.3       1 <0>        -0.0849
      5 O1         -0.4980   -0.2777    0.0940 O.3       1 <0>        -0.3655
      6 N1         -1.6514    2.3831    0.3271 N.pl3     1 <0>        -0.3340
      7 N2         -3.4650    3.2938   -0.5386 N.2       1 <0>        -0.2441
      8 C1          0.2524    0.8775   -0.3043 C.3       1 <0>         0.1032
      9 C2         -0.2401    2.0783    0.5289 C.3       1 <0>         0.0546
     10 C3          1.7119    0.5930   -0.1530 C.ar      1 <0>         0.0012
     11 C4         -0.1668   -1.3999   -0.7043 C.3       1 <0>         0.0754
     12 C5          2.5695    0.5615   -1.2528 C.ar      1 <0>         0.0480
     13 C6          2.2109    0.3556    1.1277 C.ar      1 <0>        -0.0533
     14 C7         -2.6843    1.8686    1.0415 C.cat     1 <0>         0.0241
     15 C8         -0.9754   -2.5796   -0.2504 C.2       1 <0>         0.0036
     16 C9         -2.1538    3.2305   -0.6078 C.cat     1 <0>         0.0960
     17 C10         3.9261    0.2924   -1.0717 C.ar      1 <0>        -0.0247
     18 C11         3.5675    0.0865    1.3088 C.ar      1 <0>        -0.0430
     19 C12         4.4251    0.0548    0.2091 C.ar      1 <0>         0.0424
     20 C13        -3.8021    2.4475    0.4879 C.2       1 <0>         0.0454
     21 C14        -2.2476   -2.8862   -0.7896 C.2       1 <0>        -0.0479
     22 C15        -0.5709   -3.4621    0.7132 C.2       1 <0>         0.0834
     23 C16        -2.7831   -4.0145   -0.2087 C.2       1 <0>        -0.0226
     24 H1         -0.0357    1.0911   -1.3378 H         1 <0>         0.0665
     25 H2         -0.1261    1.8979    1.6047 H         1 <0>         0.0521
     26 H3          0.3267    2.9845    0.2826 H         1 <0>         0.0521
     27 H4          0.8927   -1.6679   -0.6472 H         1 <0>         0.0611
     28 H5         -0.4003   -1.1858   -1.7553 H         1 <0>         0.0611
     29 H6          1.5606    0.3610    1.9979 H         1 <0>         0.0622
     30 H7         -2.5529    1.1630    1.8499 H         1 <0>         0.0825
     31 H8         -1.5331    3.7708   -1.3096 H         1 <0>         0.1029
     32 H9          4.5966    0.2672   -1.9283 H         1 <0>         0.0647
     33 H10         3.9417   -0.1001    2.3121 H         1 <0>         0.0632
     34 H11        -4.8324    2.2971    0.7757 H         1 <0>         0.0845
     35 H12        -2.7549   -2.3194   -1.5600 H         1 <0>         0.0627
     36 H13        -3.7358   -4.4781   -0.4228 H         1 <0>         0.0694
@<TRIPOS>BOND
     1    1   12 1
     2    2   19 1
     3    3   22 1
     4    4   22 1
     5    4   23 1
     6    5    8 1
     7    5   11 1
     8    6    9 1
     9    6   14 1
    10    6   16 2
    11    7   16 1
    12    7   20 2
    13    8    9 1
    14    8   10 1
    15    8   24 1
    16    9   25 1
    17    9   26 1
    18   10   12 ar
    19   10   13 ar
    20   11   15 1
    21   11   27 1
    22   11   28 1
    23   12   17 ar
    24   13   18 ar
    25   13   29 1
    26   14   20 1
    27   14   30 1
    28   15   21 1
    29   15   22 2
    30   16   31 1
    31   17   19 ar
    32   17   32 1
    33   18   19 ar
    34   18   33 1
    35   20   34 1
    36   21   23 2
    37   21   35 1
    38   23   36 1
