@<TRIPOS>MOLECULE
DB01238
   57    60     0     0     0
SMALL
USER_CHARGES

@<TRIPOS>ATOM
      1 Cl1        -7.2048   -1.7287    1.4892 Cl        1 <0>        -0.0801
      2 Cl2       -10.2340   -0.6684    1.5408 Cl        1 <0>        -0.0820
      3 O1          3.3827   -0.9752    1.0240 O.3       1 <0>        -0.4919
      4 O2         10.1927   -1.2993   -0.9695 O.2       1 <0>        -0.2755
      5 N1         -2.6099   -0.7528   -0.4947 N.3       1 <0>        -0.2994
      6 N2         -5.3498   -0.0199   -0.1549 N.pl3     1 <0>        -0.3263
      7 N3          8.0066   -1.1854   -0.2737 N.am      1 <0>        -0.2851
      8 C1         -3.6795   -1.6922   -0.8535 C.3       1 <0>         0.0147
      9 C2         -3.0247    0.0606    0.6548 C.3       1 <0>         0.0147
     10 C3         -4.9630   -0.9465   -1.2263 C.3       1 <0>         0.0250
     11 C4         -4.2872    0.8644    0.3332 C.3       1 <0>         0.0250
     12 C5         -1.3738   -1.4738   -0.1936 C.3       1 <0>        -0.0009
     13 C6         -0.2452   -0.4895    0.1088 C.3       1 <0>        -0.0371
     14 C7         -6.6832    0.4010   -0.0992 C.ar      1 <0>         0.0497
     15 C8          1.0590   -1.2225    0.4176 C.3       1 <0>        -0.0175
     16 C9          2.1812   -0.2521    0.7619 C.3       1 <0>         0.0896
     17 C10        -7.6729   -0.2944    0.6290 C.ar      1 <0>         0.0802
     18 C11        -7.0740    1.5653   -0.7924 C.ar      1 <0>        -0.0391
     19 C12         6.9704    0.9629    0.1991 C.ar      1 <0>        -0.0255
     20 C13         8.3012    1.6291   -0.0005 C.3       1 <0>        -0.0177
     21 C14         6.8782   -0.4308    0.0938 C.ar      1 <0>         0.0400
     22 C15         4.5576   -0.3430    0.7533 C.ar      1 <0>         0.1223
     23 C16        -8.9931    0.1552    0.6611 C.ar      1 <0>         0.0610
     24 C17        -8.3940    2.0149   -0.7602 C.ar      1 <0>        -0.0585
     25 C18         9.1482    0.8593   -1.0026 C.3       1 <0>         0.0283
     26 C19         5.6778   -1.0853    0.3798 C.ar      1 <0>         0.0016
     27 C20        -9.3535    1.3100   -0.0335 C.ar      1 <0>        -0.0419
     28 C21         5.8451    1.6972    0.5881 C.ar      1 <0>        -0.0534
     29 C22         4.6402    1.0456    0.8549 C.ar      1 <0>        -0.0196
     30 C23         9.1902   -0.6299   -0.7204 C.2       1 <0>         0.2175
     31 H1         -3.3744   -2.2987   -1.7149 H         1 <0>         0.0442
     32 H2         -3.8844   -2.3824   -0.0238 H         1 <0>         0.0442
     33 H3         -3.2025   -0.5697    1.5366 H         1 <0>         0.0442
     34 H4         -2.2806    0.8125    0.9275 H         1 <0>         0.0442
     35 H5         -4.8179   -0.3852   -2.1582 H         1 <0>         0.0476
     36 H6         -5.7561   -1.6822   -1.4078 H         1 <0>         0.0476
     37 H7         -4.6148    1.3836    1.2425 H         1 <0>         0.0476
     38 H8         -4.0638    1.6279   -0.4229 H         1 <0>         0.0476
     39 H9         -1.5105   -2.1602    0.6523 H         1 <0>         0.0427
     40 H10        -1.0829   -2.0803   -1.0606 H         1 <0>         0.0427
     41 H11        -0.0979    0.1891   -0.7405 H         1 <0>         0.0279
     42 H12        -0.4585    0.1227    0.9893 H         1 <0>         0.0279
     43 H13         0.9173   -1.9203    1.2524 H         1 <0>         0.0298
     44 H14         1.3607   -1.8374   -0.4395 H         1 <0>         0.0298
     45 H15         1.9150    0.3263    1.6543 H         1 <0>         0.0696
     46 H16         2.3035    0.4303   -0.0895 H         1 <0>         0.0696
     47 H17        -6.3453    2.1289   -1.3711 H         1 <0>         0.0636
     48 H18         8.1687    2.6574   -0.3560 H         1 <0>         0.0318
     49 H19         8.8134    1.6717    0.9686 H         1 <0>         0.0318
     50 H20        10.1714    1.2507   -0.9982 H         1 <0>         0.0362
     51 H21         8.7457    0.9842   -2.0156 H         1 <0>         0.0362
     52 H22        -8.6750    2.9132   -1.3022 H         1 <0>         0.0619
     53 H23         5.6077   -2.1678    0.3067 H         1 <0>         0.0673
     54 H24         5.9045    2.7766    0.7006 H         1 <0>         0.0622
     55 H25       -10.3774    1.6751   -0.0201 H         1 <0>         0.0633
     56 H26         3.8008    1.6550    1.1768 H         1 <0>         0.0654
     57 H27         7.9446   -2.1971   -0.2016 H         1 <0>         0.1548
@<TRIPOS>BOND
     1    1   17 1
     2    2   23 1
     3    3   16 1
     4    3   22 1
     5    4   30 2
     6    5    8 1
     7    5    9 1
     8    5   12 1
     9    6   10 1
    10    6   11 1
    11    6   14 1
    12    7   21 1
    13    7   30 am
    14    7   57 1
    15    8   10 1
    16    8   31 1
    17    8   32 1
    18    9   11 1
    19    9   33 1
    20    9   34 1
    21   10   35 1
    22   10   36 1
    23   11   37 1
    24   11   38 1
    25   12   13 1
    26   12   39 1
    27   12   40 1
    28   13   15 1
    29   13   41 1
    30   13   42 1
    31   14   17 ar
    32   14   18 ar
    33   15   16 1
    34   15   43 1
    35   15   44 1
    36   16   45 1
    37   16   46 1
    38   17   23 ar
    39   18   24 ar
    40   18   47 1
    41   19   20 1
    42   19   21 ar
    43   19   28 ar
    44   20   25 1
    45   20   48 1
    46   20   49 1
    47   21   26 ar
    48   22   26 ar
    49   22   29 ar
    50   23   27 ar
    51   24   27 ar
    52   24   52 1
    53   25   30 1
    54   25   50 1
    55   25   51 1
    56   26   53 1
    57   27   55 1
    58   28   29 ar
    59   28   54 1
    60   29   56 1
