@<TRIPOS>MOLECULE
DB01558
   29    31     0     0     0
SMALL
USER_CHARGES

@<TRIPOS>ATOM
      1 Br1        -1.0835   -4.2298    1.5879 Br        1 <0>        -0.0503
      2 O1         -2.4112    3.4232   -1.1828 O.2       1 <0>        -0.2734
      3 N1         -2.5045    1.1511   -0.9145 N.am      1 <0>        -0.2834
      4 N2          0.0667    2.0187    0.4106 N.2       1 <0>        -0.2718
      5 N3          1.7352   -0.7826   -0.8342 N.ar      1 <0>        -0.2534
      6 C1         -0.8463   -0.2722    0.2802 C.ar      1 <0>         0.0243
      7 C2         -2.0839   -0.0727   -0.3536 C.ar      1 <0>         0.0428
      8 C3          0.2414    0.7524    0.2413 C.2       1 <0>         0.0932
      9 C4         -0.5654   -1.5130    0.8759 C.ar      1 <0>        -0.0367
     10 C5         -1.2622    2.5114    0.7004 C.3       1 <0>         0.1168
     11 C6          1.6346    0.3057   -0.0480 C.ar      1 <0>         0.0893
     12 C7         -2.9727   -1.1519   -0.4722 C.ar      1 <0>        -0.0388
     13 C8         -2.0819    2.4134   -0.5586 C.2       1 <0>         0.2386
     14 C9         -1.4802   -2.5619    0.7924 C.ar      1 <0>         0.0186
     15 C10        -2.6755   -2.3870    0.1035 C.ar      1 <0>        -0.0460
     16 C11         2.7014    0.9996    0.4832 C.ar      1 <0>        -0.0342
     17 C12         3.9785    0.5389    0.1831 C.ar      1 <0>        -0.0583
     18 C13         2.9923   -1.2009   -1.1041 C.ar      1 <0>         0.0283
     19 C14         4.1354   -0.5816   -0.6250 C.ar      1 <0>        -0.0436
     20 H1         -3.2450    1.1014   -1.6097 H         1 <0>         0.1549
     21 H2          0.3745   -1.6689    1.4015 H         1 <0>         0.0636
     22 H3         -1.1964    3.5658    0.9904 H         1 <0>         0.0605
     23 H4         -1.7445    1.9884    1.5342 H         1 <0>         0.0605
     24 H5         -3.9235   -1.0309   -0.9871 H         1 <0>         0.0637
     25 H6         -3.3936   -3.1979    0.0136 H         1 <0>         0.0629
     26 H7          2.5787    1.8681    1.1208 H         1 <0>         0.0639
     27 H8          4.8501    1.0507    0.5800 H         1 <0>         0.0619
     28 H9          3.0602   -2.0790   -1.7379 H         1 <0>         0.0830
     29 H10         5.1214   -0.9588   -0.8715 H         1 <0>         0.0633
@<TRIPOS>BOND
     1    1   14 1
     2    2   13 2
     3    3    7 1
     4    3   13 am
     5    3   20 1
     6    4    8 2
     7    4   10 1
     8    5   11 ar
     9    5   18 ar
    10    6    7 ar
    11    6    8 1
    12    6    9 ar
    13    7   12 ar
    14    8   11 1
    15    9   14 ar
    16    9   21 1
    17   10   13 1
    18   10   22 1
    19   10   23 1
    20   11   16 ar
    21   12   15 ar
    22   12   24 1
    23   14   15 ar
    24   15   25 1
    25   16   17 ar
    26   16   26 1
    27   17   19 ar
    28   17   27 1
    29   18   19 ar
    30   18   28 1
    31   19   29 1
