@<TRIPOS>MOLECULE
DB01430
   64    67     0     0     0
SMALL
USER_CHARGES

@<TRIPOS>ATOM
      1 F1         -6.4437   -3.8653    2.5731 F         1 <0>        -0.2055
      2 F2         -5.8976    4.6140   -1.3595 F         1 <0>        -0.2055
      3 N1         -1.9565   -0.1821   -0.0070 N.3       1 <0>        -0.2886
      4 N2          0.8957   -0.0765   -0.1235 N.pl3     1 <0>        -0.2971
      5 N3          2.9442   -1.1958   -0.1160 N.ar      1 <0>        -0.1809
      6 N4          2.8440    1.1946    0.0694 N.ar      1 <0>        -0.1809
      7 N5          4.9680    0.0785    0.0799 N.ar      1 <0>        -0.1810
      8 N6          5.0343   -2.2583   -0.1038 N.pl3     1 <0>        -0.3098
      9 N7          4.8386    2.4129    0.2583 N.pl3     1 <0>        -0.3098
     10 C1         -1.1759   -1.4092   -0.2089 C.3       1 <0>         0.0156
     11 C2         -1.2803    0.9512   -0.6498 C.3       1 <0>         0.0156
     12 C3         -3.3093   -0.3415   -0.5393 C.3       1 <0>         0.0610
     13 C4          0.2240   -1.2749    0.3949 C.3       1 <0>         0.0277
     14 C5          0.1168    1.1640   -0.0616 C.3       1 <0>         0.0277
     15 C6         -4.1537   -1.2902    0.2988 C.ar      1 <0>        -0.0257
     16 C7         -4.0066    0.9928   -0.7601 C.ar      1 <0>        -0.0257
     17 C8          2.2923   -0.0235   -0.0535 C.ar      1 <0>         0.2237
     18 C9         -5.1604   -2.0448   -0.3034 C.ar      1 <0>        -0.0540
     19 C10        -4.7635    1.5622    0.2640 C.ar      1 <0>        -0.0540
     20 C11        -3.9204   -1.4054    1.6691 C.ar      1 <0>        -0.0540
     21 C12        -3.8885    1.6467   -1.9865 C.ar      1 <0>        -0.0540
     22 C13        -5.9339   -2.9148    0.4649 C.ar      1 <0>        -0.0261
     23 C14        -5.4023    2.7855    0.0615 C.ar      1 <0>        -0.0261
     24 C15        -4.6940   -2.2754    2.4374 C.ar      1 <0>        -0.0261
     25 C16        -4.5273    2.8700   -2.1891 C.ar      1 <0>        -0.0261
     26 C17        -5.7008   -3.0300    1.8354 C.ar      1 <0>         0.1234
     27 C18        -5.2842    3.4393   -1.1650 C.ar      1 <0>         0.1234
     28 C19         4.2789   -1.0674   -0.0435 C.ar      1 <0>         0.2213
     29 C20         4.1851    1.1682    0.1298 C.ar      1 <0>         0.2213
     30 C21         4.4363   -3.5501   -0.2354 C.3       1 <0>         0.0299
     31 C22         4.1345    3.6553    0.3233 C.3       1 <0>         0.0299
     32 C23         5.5176   -4.5821   -0.2629 C.2       1 <0>        -0.0742
     33 C24         5.1265    4.7661    0.4522 C.2       1 <0>        -0.0742
     34 C25         5.7208   -5.4239   -1.2827 C.2       1 <0>        -0.1012
     35 C26         5.1634    5.6186    1.4827 C.2       1 <0>        -0.1012
     36 H1         -1.6522   -2.2768    0.2606 H         1 <0>         0.0442
     37 H2         -1.0828   -1.6364   -1.2802 H         1 <0>         0.0442
     38 H3         -1.7866    1.9034   -0.4636 H         1 <0>         0.0442
     39 H4         -1.1871    0.7981   -1.7332 H         1 <0>         0.0442
     40 H5         -3.2303   -0.8081   -1.5346 H         1 <0>         0.0562
     41 H6          0.7725   -2.1915    0.1481 H         1 <0>         0.0477
     42 H7          0.1621   -1.2127    1.4890 H         1 <0>         0.0477
     43 H8          0.0464    1.5008    0.9807 H         1 <0>         0.0477
     44 H9          0.5986    1.9627   -0.6394 H         1 <0>         0.0477
     45 H10        -5.3534   -1.9637   -1.3697 H         1 <0>         0.0622
     46 H11        -4.8646    1.1008    1.2402 H         1 <0>         0.0622
     47 H12        -3.1560   -0.8209    2.1734 H         1 <0>         0.0622
     48 H13        -3.3150    1.2123   -2.8008 H         1 <0>         0.0622
     49 H14        -6.7182   -3.5023   -0.0034 H         1 <0>         0.0646
     50 H15        -5.9877    3.2320    0.8597 H         1 <0>         0.0646
     51 H16        -4.5155   -2.3629    3.5050 H         1 <0>         0.0646
     52 H17        -4.4381    3.3779   -3.1446 H         1 <0>         0.0646
     53 H18         6.0414   -2.1515   -0.0515 H         1 <0>         0.1492
     54 H19         5.8512    2.3829    0.3058 H         1 <0>         0.1492
     55 H20         3.8276   -3.5997   -1.1462 H         1 <0>         0.0506
     56 H21         3.7797   -3.7577    0.6176 H         1 <0>         0.0506
     57 H22         3.4365    3.6565    1.1690 H         1 <0>         0.0506
     58 H23         3.5518    3.8144   -0.5915 H         1 <0>         0.0506
     59 H24         6.1627   -4.6595    0.6090 H         1 <0>         0.0582
     60 H25         5.8472    4.8944   -0.3520 H         1 <0>         0.0582
     61 H26         6.5182   -6.1577   -1.2385 H         1 <0>         0.0532
     62 H27         5.1024   -5.3973   -2.1730 H         1 <0>         0.0532
     63 H28         4.4636    5.5431    2.3075 H         1 <0>         0.0532
     64 H29         5.9034    6.4108    1.5137 H         1 <0>         0.0532
@<TRIPOS>BOND
     1    1   26 1
     2    2   27 1
     3    3   10 1
     4    3   11 1
     5    3   12 1
     6    4   13 1
     7    4   14 1
     8    4   17 1
     9    5   17 ar
    10    5   28 ar
    11    6   17 ar
    12    6   29 ar
    13    7   28 ar
    14    7   29 ar
    15    8   28 1
    16    8   30 1
    17    8   53 1
    18    9   29 1
    19    9   31 1
    20    9   54 1
    21   10   13 1
    22   10   36 1
    23   10   37 1
    24   11   14 1
    25   11   38 1
    26   11   39 1
    27   12   15 1
    28   12   16 1
    29   12   40 1
    30   13   41 1
    31   13   42 1
    32   14   43 1
    33   14   44 1
    34   15   18 ar
    35   15   20 ar
    36   16   19 ar
    37   16   21 ar
    38   18   22 ar
    39   18   45 1
    40   19   23 ar
    41   19   46 1
    42   20   24 ar
    43   20   47 1
    44   21   25 ar
    45   21   48 1
    46   22   26 ar
    47   22   49 1
    48   23   27 ar
    49   23   50 1
    50   24   26 ar
    51   24   51 1
    52   25   27 ar
    53   25   52 1
    54   30   32 1
    55   30   55 1
    56   30   56 1
    57   31   33 1
    58   31   57 1
    59   31   58 1
    60   32   34 2
    61   32   59 1
    62   33   35 2
    63   33   60 1
    64   34   61 1
    65   34   62 1
    66   35   63 1
    67   35   64 1
