@<TRIPOS>MOLECULE
DB01261
   43    45     0     0     0
SMALL
USER_CHARGES

@<TRIPOS>ATOM
      1 F1         -7.9806    0.1590    0.2327 F         1 <0>        -0.1632
      2 F2         -6.6898    1.8252    0.7661 F         1 <0>        -0.1632
      3 F3         -6.7208    1.0878   -1.2854 F         1 <0>        -0.1632
      4 F4          2.9605    2.3384   -0.2448 F         1 <0>        -0.2051
      5 F5          7.2994   -0.8063    0.8498 F         1 <0>        -0.2025
      6 F6          7.6482    1.8036    0.1167 F         1 <0>        -0.2024
      7 O1          0.1654    1.1303   -1.2107 O.2       1 <0>        -0.2755
      8 N1         -1.5655    0.0806   -0.0635 N.am      1 <0>        -0.2924
      9 N2         -4.3332    0.0331    0.1761 N.pl3     1 <0>        -0.3048
     10 N3         -4.4907   -2.0171    0.8990 N.2       1 <0>        -0.1324
     11 N4          2.5601   -2.2940   -0.9666 N.3       1 <0>        -0.3265
     12 N5         -5.7654   -1.4956    0.7583 N.2       1 <0>        -0.1250
     13 C1         -2.2781    1.3412    0.1963 C.3       1 <0>         0.0332
     14 C2         -3.7212    1.2559   -0.2882 C.3       1 <0>         0.0422
     15 C3         -2.1497   -1.1387    0.5295 C.3       1 <0>         0.0746
     16 C4         -3.6340   -1.0821    0.5420 C.cat     1 <0>         0.1512
     17 C5          0.4208   -1.1908   -0.7985 C.3       1 <0>         0.0396
     18 C6          1.9344   -0.9751   -0.8019 C.3       1 <0>         0.0172
     19 C7         -0.3289    0.1158   -0.7131 C.2       1 <0>         0.2175
     20 C8          2.4676   -0.3416    0.5019 C.3       1 <0>        -0.0092
     21 C9         -5.6466   -0.2604    0.3219 C.cat     1 <0>         0.2376
     22 C10         3.8578    0.2367    0.3969 C.ar      1 <0>        -0.0078
     23 C11        -6.7370    0.6828    0.0182 C.3       1 <0>         0.4524
     24 C12         4.0193    1.5616    0.0237 C.ar      1 <0>         0.1295
     25 C13         4.9492   -0.5703    0.6769 C.ar      1 <0>        -0.0176
     26 C14         6.2352   -0.0386    0.5814 C.ar      1 <0>         0.1588
     27 C15         5.3053    2.0933   -0.0720 C.ar      1 <0>         0.0119
     28 C16         6.4134    1.2931    0.2069 C.ar      1 <0>         0.1611
     29 H1         -1.7728    2.1865   -0.2814 H         1 <0>         0.0482
     30 H2         -2.2424    1.5078    1.2801 H         1 <0>         0.0482
     31 H3         -4.2980    2.1096    0.0785 H         1 <0>         0.0508
     32 H4         -3.7655    1.2324   -1.3828 H         1 <0>         0.0508
     33 H5         -1.7631   -1.2268    1.5502 H         1 <0>         0.0545
     34 H6         -1.8507   -2.0217   -0.0414 H         1 <0>         0.0545
     35 H7          0.0893   -1.7002   -1.7114 H         1 <0>         0.0374
     36 H8          0.1867   -1.8317    0.0568 H         1 <0>         0.0374
     37 H9          2.2176   -0.3530   -1.6596 H         1 <0>         0.0466
     38 H10         1.7975    0.4610    0.8355 H         1 <0>         0.0329
     39 H11         2.4360   -1.0706    1.3246 H         1 <0>         0.0329
     40 H12         2.2082   -2.7385   -1.8137 H         1 <0>         0.1185
     41 H13         2.2950   -2.9049   -0.1947 H         1 <0>         0.1185
     42 H14         4.8232   -1.6076    0.9726 H         1 <0>         0.0651
     43 H15         5.4440    3.1301   -0.3630 H         1 <0>         0.0676
@<TRIPOS>BOND
     1    1   23 1
     2    2   23 1
     3    3   23 1
     4    4   24 1
     5    5   26 1
     6    6   28 1
     7    7   19 2
     8    8   13 1
     9    8   15 1
    10    8   19 am
    11    9   14 1
    12    9   16 1
    13    9   21 2
    14   10   12 2
    15   10   16 1
    16   11   18 1
    17   11   40 1
    18   11   41 1
    19   12   21 1
    20   13   14 1
    21   13   29 1
    22   13   30 1
    23   14   31 1
    24   14   32 1
    25   15   16 1
    26   15   33 1
    27   15   34 1
    28   17   18 1
    29   17   19 1
    30   17   35 1
    31   17   36 1
    32   18   20 1
    33   18   37 1
    34   20   22 1
    35   20   38 1
    36   20   39 1
    37   21   23 1
    38   22   24 ar
    39   22   25 ar
    40   24   27 ar
    41   25   26 ar
    42   25   42 1
    43   26   28 ar
    44   27   28 ar
    45   27   43 1
