@<TRIPOS>MOLECULE
DB01166
   54    57     0     0     0
SMALL
USER_CHARGES

@<TRIPOS>ATOM
      1 O1         -0.3504    2.1664    0.8507 O.3       1 <0>        -0.4920
      2 O2          6.7426   -0.1611   -0.7798 O.2       1 <0>        -0.2755
      3 N1         -3.5383   -1.2565   -0.0904 N.pl3     1 <0>        -0.2262
      4 N2         -4.4207   -2.2529    0.0677 N.2       1 <0>        -0.0436
      5 N3         -5.4879   -0.3106   -0.1764 N.2       1 <0>        -0.1134
      6 N4         -5.6114   -1.6684    0.0146 N.2       1 <0>        -0.0230
      7 N5          4.7589    0.9798   -0.9773 N.am      1 <0>        -0.2852
      8 C1         -2.0930   -1.5171   -0.0866 C.3       1 <0>         0.0563
      9 C2         -1.5359   -1.7335   -1.5036 C.3       1 <0>        -0.0304
     10 C3         -1.7113   -2.6725    0.8538 C.3       1 <0>        -0.0304
     11 C4         -0.0271   -1.9712   -1.4769 C.3       1 <0>        -0.0511
     12 C5         -0.2015   -2.9039    0.8649 C.3       1 <0>        -0.0511
     13 C6          0.3461   -3.1196   -0.5435 C.3       1 <0>        -0.0529
     14 C7         -4.2136   -0.1095   -0.2336 C.cat     1 <0>         0.1516
     15 C8         -3.5212    1.2156   -0.4306 C.3       1 <0>         0.0090
     16 C9         -3.2309    1.9017    0.9071 C.3       1 <0>        -0.0430
     17 C10        -2.4979    3.2259    0.7033 C.3       1 <0>        -0.0182
     18 C11        -1.1463    3.0228    0.0330 C.3       1 <0>         0.0896
     19 C12         3.0147    0.7256    0.6978 C.ar      1 <0>        -0.0223
     20 C13         3.9557   -0.0997    1.5272 C.3       1 <0>        -0.0175
     21 C14         3.4643    1.2710   -0.5114 C.ar      1 <0>         0.0368
     22 C15         4.9404   -0.8513    0.6440 C.3       1 <0>         0.0283
     23 C16         0.9078    1.8859    0.4125 C.ar      1 <0>         0.1209
     24 C17         1.7329    1.0436    1.1590 C.ar      1 <0>        -0.0150
     25 C18         5.5858    0.0317   -0.4060 C.2       1 <0>         0.2175
     26 C19         2.6459    2.1296   -1.2492 C.ar      1 <0>        -0.0368
     27 C20         1.3644    2.4296   -0.7878 C.ar      1 <0>        -0.0182
     28 H1         -1.6346   -0.6089    0.3253 H         1 <0>         0.0546
     29 H2         -2.0333   -2.5942   -1.9690 H         1 <0>         0.0286
     30 H3         -1.7554   -0.8684   -2.1399 H         1 <0>         0.0286
     31 H4         -2.2053   -3.6010    0.5402 H         1 <0>         0.0286
     32 H5         -2.0551   -2.4600    1.8736 H         1 <0>         0.0286
     33 H6          0.3286   -2.1901   -2.4901 H         1 <0>         0.0266
     34 H7          0.4808   -1.0555   -1.1516 H         1 <0>         0.0266
     35 H8          0.2968   -2.0401    1.3218 H         1 <0>         0.0266
     36 H9          0.0332   -3.7738    1.4885 H         1 <0>         0.0266
     37 H10         1.4367   -3.2193   -0.5021 H         1 <0>         0.0265
     38 H11        -0.0464   -4.0608   -0.9476 H         1 <0>         0.0265
     39 H12        -2.6167    1.0551   -1.0210 H         1 <0>         0.0344
     40 H13        -4.1742    1.8579   -1.0349 H         1 <0>         0.0344
     41 H14        -2.6515    1.2410    1.5631 H         1 <0>         0.0270
     42 H15        -4.1758    2.0970    1.4300 H         1 <0>         0.0270
     43 H16        -2.3499    3.6877    1.6870 H         1 <0>         0.0298
     44 H17        -3.1101    3.9112    0.1061 H         1 <0>         0.0298
     45 H18        -0.6730    4.0112   -0.0337 H         1 <0>         0.0696
     46 H19        -1.2725    2.6192   -0.9762 H         1 <0>         0.0696
     47 H20         4.4967    0.5722    2.2047 H         1 <0>         0.0318
     48 H21         3.4002   -0.8191    2.1397 H         1 <0>         0.0318
     49 H22         4.4295   -1.6640    0.1125 H         1 <0>         0.0362
     50 H23         5.7253   -1.2981    1.2640 H         1 <0>         0.0362
     51 H24         1.3763    0.6381    2.1028 H         1 <0>         0.0657
     52 H25         5.1032    1.5018   -1.7782 H         1 <0>         0.1548
     53 H26         2.9931    2.5626   -2.1838 H         1 <0>         0.0637
     54 H27         0.7816    3.0966   -1.4135 H         1 <0>         0.0655
@<TRIPOS>BOND
     1    1   18 1
     2    1   23 1
     3    2   25 2
     4    3    4 1
     5    3    8 1
     6    3   14 2
     7    4    6 1
     8    5    6 2
     9    5   14 1
    10    7   21 1
    11    7   25 am
    12    7   52 1
    13    8    9 1
    14    8   10 1
    15    8   28 1
    16    9   11 1
    17    9   29 1
    18    9   30 1
    19   10   12 1
    20   10   31 1
    21   10   32 1
    22   11   13 1
    23   11   33 1
    24   11   34 1
    25   12   13 1
    26   12   35 1
    27   12   36 1
    28   13   37 1
    29   13   38 1
    30   14   15 1
    31   15   16 1
    32   15   39 1
    33   15   40 1
    34   16   17 1
    35   16   41 1
    36   16   42 1
    37   17   18 1
    38   17   43 1
    39   17   44 1
    40   18   45 1
    41   18   46 1
    42   19   20 1
    43   19   21 ar
    44   19   24 ar
    45   20   22 1
    46   20   47 1
    47   20   48 1
    48   21   26 ar
    49   22   25 1
    50   22   49 1
    51   22   50 1
    52   23   24 ar
    53   23   27 ar
    54   24   51 1
    55   26   27 ar
    56   26   53 1
    57   27   54 1
