@<TRIPOS>MOLECULE
DB01783
   32    31     0     0     0
SMALL
USER_CHARGES

@<TRIPOS>ATOM
      1 O1         -2.0725   -2.2836    0.1763 O.3       1 <0>        -0.3820
      2 O2         -1.3227    2.5471    0.0732 O.3       1 <0>        -0.3944
      3 O3          0.2517   -2.1480   -1.1978 O.2       1 <0>        -0.2730
      4 O4          3.0380    2.1587   -0.5931 O.3       1 <0>        -0.4806
      5 O5          3.2381    1.1844    1.4480 O.2       1 <0>        -0.2510
      6 N1          1.2553   -1.1943    0.6641 N.am      1 <0>        -0.3126
      7 C1         -1.7493    0.1332    0.1009 C.3       1 <0>         0.0227
      8 C2         -1.1680   -1.2437    0.5393 C.3       1 <0>         0.1380
      9 C3         -0.7897    1.2897    0.4746 C.3       1 <0>         0.0521
     10 C4         -3.0989    0.3514    0.8259 C.3       1 <0>        -0.0549
     11 C5         -2.0292    0.1580   -1.4151 C.3       1 <0>        -0.0549
     12 C6          0.1726   -1.5928   -0.1035 C.2       1 <0>         0.2423
     13 C7          2.6263   -1.3919    0.2535 C.3       1 <0>         0.0217
     14 C8          3.1593   -0.2118   -0.5483 C.3       1 <0>         0.0603
     15 C9          3.1503    1.0848    0.2321 C.2       1 <0>         0.3062
     16 H1         -1.0649   -1.2783    1.6302 H         1 <0>         0.0696
     17 H2          0.1837    1.1830   -0.0113 H         1 <0>         0.0563
     18 H3         -0.6257    1.3242    1.5568 H         1 <0>         0.0563
     19 H4         -3.8230   -0.4319    0.5757 H         1 <0>         0.0237
     20 H5         -3.5541    1.3097    0.5520 H         1 <0>         0.0237
     21 H6         -2.9640    0.3466    1.9134 H         1 <0>         0.0237
     22 H7         -2.5117    1.0937   -1.7198 H         1 <0>         0.0237
     23 H8         -2.7061   -0.6445   -1.7251 H         1 <0>         0.0237
     24 H9         -1.1051    0.0664   -1.9951 H         1 <0>         0.0237
     25 H10         1.0920   -0.7305    1.5528 H         1 <0>         0.1488
     26 H11        -2.0621   -2.3847   -0.7898 H         1 <0>         0.2105
     27 H12         3.2150   -1.5383    1.1653 H         1 <0>         0.0467
     28 H13         2.6931   -2.3069   -0.3447 H         1 <0>         0.0467
     29 H14        -1.1936    2.6312   -0.8865 H         1 <0>         0.2094
     30 H15         2.5426   -0.0792   -1.4453 H         1 <0>         0.0393
     31 H16         4.1898   -0.4051   -0.8641 H         1 <0>         0.0393
     32 H17         3.0326    3.0034   -0.0945 H         1 <0>         0.2951
@<TRIPOS>BOND
     1    1    8 1
     2    1   26 1
     3    2    9 1
     4    2   29 1
     5    3   12 2
     6    4   15 1
     7    4   32 1
     8    5   15 2
     9    6   12 am
    10    6   13 1
    11    6   25 1
    12    7    8 1
    13    7    9 1
    14    7   10 1
    15    7   11 1
    16    8   12 1
    17    8   16 1
    18    9   17 1
    19    9   18 1
    20   10   19 1
    21   10   20 1
    22   10   21 1
    23   11   22 1
    24   11   23 1
    25   11   24 1
    26   13   14 1
    27   13   27 1
    28   13   28 1
    29   14   15 1
    30   14   30 1
    31   14   31 1
