@<TRIPOS>MOLECULE
DB01255
   44    44     0     0     0
SMALL
USER_CHARGES

@<TRIPOS>ATOM
      1 O1         -1.2466    2.0723    1.6741 O.2       1 <0>        -0.2741
      2 N1         -1.9442    0.8553   -0.1756 N.am      1 <0>        -0.3111
      3 N2         -0.7135    4.0028   -0.4768 N.3       1 <0>        -0.3199
      4 N3          4.9596   -0.7109    0.6881 N.3       1 <0>        -0.3300
      5 C1          1.1642    2.4195   -0.0731 C.3       1 <0>        -0.0292
      6 C2         -0.3010    2.6008   -0.4967 C.3       1 <0>         0.0823
      7 C3         -2.8622   -0.0238    0.5124 C.3       1 <0>         0.0243
      8 C4          1.6301    0.9601   -0.1044 C.3       1 <0>        -0.0501
      9 C5         -2.9582   -1.3894   -0.1856 C.3       1 <0>        -0.0094
     10 C6          3.1053    0.8409    0.2881 C.3       1 <0>        -0.0406
     11 C7         -1.2059    1.8391    0.4677 C.2       1 <0>         0.2301
     12 C8         -4.2353    0.6351    0.5993 C.3       1 <0>        -0.0463
     13 C9         -1.6238   -2.0872   -0.3024 C.ar      1 <0>        -0.0456
     14 C10         3.5594   -0.6177    0.2926 C.3       1 <0>        -0.0069
     15 C11        -0.8388   -1.8673   -1.4228 C.ar      1 <0>        -0.0585
     16 C12        -1.2091   -2.9337    0.7133 C.ar      1 <0>        -0.0585
     17 C13         0.3937   -2.5113   -1.5307 C.ar      1 <0>        -0.0615
     18 C14         0.0234   -3.5776    0.6053 C.ar      1 <0>        -0.0615
     19 C15         0.8248   -3.3665   -0.5167 C.ar      1 <0>        -0.0617
     20 H1          1.3140    2.8173    0.9397 H         1 <0>         0.0285
     21 H2          1.8044    3.0123   -0.7395 H         1 <0>         0.0285
     22 H3         -0.4258    2.2255   -1.5184 H         1 <0>         0.0554
     23 H4         -2.4866   -0.1690    1.5334 H         1 <0>         0.0499
     24 H5          1.0279    0.3554    0.5832 H         1 <0>         0.0266
     25 H6          1.4845    0.5521   -1.1116 H         1 <0>         0.0266
     26 H7         -3.6599   -2.0370    0.3566 H         1 <0>         0.0331
     27 H8         -3.3859   -1.2710   -1.1908 H         1 <0>         0.0331
     28 H9          3.7178    1.4210   -0.4135 H         1 <0>         0.0277
     29 H10         3.2524    1.2784    1.2837 H         1 <0>         0.0277
     30 H11        -1.9105    0.7974   -1.1888 H         1 <0>         0.1490
     31 H12        -4.6448    0.8331   -0.3976 H         1 <0>         0.0248
     32 H13        -4.9422   -0.0041    1.1383 H         1 <0>         0.0248
     33 H14        -4.1785    1.5935    1.1271 H         1 <0>         0.0248
     34 H15         2.9522   -1.2050    0.9896 H         1 <0>         0.0422
     35 H16         3.4379   -1.0585   -0.7026 H         1 <0>         0.0422
     36 H17        -0.5431    4.3982    0.4476 H         1 <0>         0.1189
     37 H18        -0.1256    4.5366   -1.1164 H         1 <0>         0.1189
     38 H19        -1.1649   -1.2084   -2.2222 H         1 <0>         0.0620
     39 H20        -1.8253   -3.1021    1.5918 H         1 <0>         0.0620
     40 H21         5.0835   -0.2942    1.6102 H         1 <0>         0.1182
     41 H22         5.5326   -0.1573    0.0521 H         1 <0>         0.1182
     42 H23         1.0184   -2.3460   -2.4037 H         1 <0>         0.0618
     43 H24         0.3600   -4.2422    1.3956 H         1 <0>         0.0618
     44 H25         1.7855   -3.8663   -0.5998 H         1 <0>         0.0618
@<TRIPOS>BOND
     1    1   11 2
     2    2    7 1
     3    2   11 am
     4    2   30 1
     5    3    6 1
     6    3   36 1
     7    3   37 1
     8    4   14 1
     9    4   40 1
    10    4   41 1
    11    5    6 1
    12    5    8 1
    13    5   20 1
    14    5   21 1
    15    6   11 1
    16    6   22 1
    17    7    9 1
    18    7   12 1
    19    7   23 1
    20    8   10 1
    21    8   24 1
    22    8   25 1
    23    9   13 1
    24    9   26 1
    25    9   27 1
    26   10   14 1
    27   10   28 1
    28   10   29 1
    29   12   31 1
    30   12   32 1
    31   12   33 1
    32   13   15 ar
    33   13   16 ar
    34   14   34 1
    35   14   35 1
    36   15   17 ar
    37   15   38 1
    38   16   18 ar
    39   16   39 1
    40   17   19 ar
    41   17   42 1
    42   18   19 ar
    43   18   43 1
    44   19   44 1
