@<TRIPOS>MOLECULE
DB01022
   79    80     0     0     0
SMALL
USER_CHARGES

@<TRIPOS>ATOM
      1 O1         -0.3620    1.0312   -0.1295 O.2       1 <0>        -0.2869
      2 O2          1.0772    5.8337    1.7017 O.2       1 <0>        -0.2870
      3 C1         -1.2817   -2.8960    1.2761 C.3       1 <0>        -0.0439
      4 C2          0.1506   -3.4460    1.1245 C.3       1 <0>        -0.0505
      5 C3          3.7479   -1.8951    0.9682 C.3       1 <0>        -0.0439
      6 C4          1.2174   -2.3462    1.0639 C.3       1 <0>        -0.0526
      7 C5          2.6217   -2.9473    0.9404 C.3       1 <0>        -0.0505
      8 C6         -1.8044   -2.2974   -0.0495 C.3       1 <0>        -0.0505
      9 C7          3.6417   -0.8104   -0.1241 C.3       1 <0>        -0.0502
     10 C8         -3.1894   -1.6460    0.0302 C.3       1 <0>        -0.0526
     11 C9         -3.6913   -1.1192   -1.3213 C.3       1 <0>        -0.0507
     12 C10        -2.2463   -3.9434    1.8388 C.3       1 <0>        -0.0624
     13 C11         3.7419   -1.3231   -1.5654 C.3       1 <0>        -0.0491
     14 C12         5.1100   -2.5962    0.9257 C.3       1 <0>        -0.0624
     15 C13        -5.0492   -0.3921   -1.3000 C.3       1 <0>        -0.0467
     16 C14         3.5721   -0.1760   -2.5688 C.3       1 <0>        -0.0320
     17 C15        -5.4374    0.0169   -2.7240 C.3       1 <0>        -0.0627
     18 C16        -5.0396    0.8392   -0.3936 C.3       1 <0>        -0.0627
     19 C17         2.2169    0.4948   -2.4574 C.2       1 <0>        -0.0762
     20 C18         2.1330    1.7959   -2.1160 C.2       1 <0>        -0.0806
     21 C19         1.0355   -0.3755   -2.7882 C.3       1 <0>        -0.0438
     22 C20         0.8945    2.6349   -1.9940 C.3       1 <0>        -0.0052
     23 C21         0.6798    3.1159   -0.5989 C.2       1 <0>         0.0102
     24 C22         1.0610    4.3195   -0.1307 C.2       1 <0>         0.0039
     25 C23        -0.0327    2.1393    0.2814 C.2       1 <0>         0.1905
     26 C24        -0.3316    2.5297    1.6683 C.ar      1 <0>         0.0327
     27 C25         0.0480    3.7792    2.1470 C.ar      1 <0>         0.0327
     28 C26         0.7553    4.7297    1.2744 C.2       1 <0>         0.1900
     29 C27         1.8239    5.3498   -0.9206 C.3       1 <0>        -0.0357
     30 C28        -1.0038    1.6338    2.5100 C.ar      1 <0>        -0.0502
     31 C29        -0.2435    4.1385    3.4696 C.ar      1 <0>        -0.0502
     32 C30        -1.2927    1.9939    3.8265 C.ar      1 <0>        -0.0610
     33 C31        -0.9132    3.2449    4.3057 C.ar      1 <0>        -0.0610
     34 H1         -1.2463   -2.0838    2.0152 H         1 <0>         0.0298
     35 H2          0.2131   -4.0804    0.2318 H         1 <0>         0.0268
     36 H3          0.3785   -4.0911    1.9827 H         1 <0>         0.0268
     37 H4          3.6868   -1.3748    1.9341 H         1 <0>         0.0298
     38 H5          1.0183   -1.6929    0.2125 H         1 <0>         0.0265
     39 H6          1.1610   -1.7295    1.9689 H         1 <0>         0.0265
     40 H7          2.6839   -3.5437    0.0222 H         1 <0>         0.0268
     41 H8          2.7783   -3.6475    1.7715 H         1 <0>         0.0268
     42 H9         -1.0981   -1.5470   -0.4181 H         1 <0>         0.0268
     43 H10        -1.8321   -3.0905   -0.8082 H         1 <0>         0.0268
     44 H11         4.4434   -0.0774    0.0397 H         1 <0>         0.0268
     45 H12         2.7081   -0.2596    0.0297 H         1 <0>         0.0268
     46 H13        -3.1391   -0.8289    0.7576 H         1 <0>         0.0265
     47 H14        -3.9289   -2.3632    0.4006 H         1 <0>         0.0265
     48 H15        -3.7550   -1.9659   -2.0173 H         1 <0>         0.0268
     49 H16        -2.9318   -0.4409   -1.7333 H         1 <0>         0.0268
     50 H17        -1.8310   -4.4062    2.7407 H         1 <0>         0.0232
     51 H18        -3.2047   -3.5005    2.1243 H         1 <0>         0.0232
     52 H19        -2.4339   -4.7380    1.1091 H         1 <0>         0.0232
     53 H20         2.9985   -2.1041   -1.7540 H         1 <0>         0.0268
     54 H21         4.7251   -1.7776   -1.7317 H         1 <0>         0.0268
     55 H22         5.2346   -3.2450    1.7996 H         1 <0>         0.0232
     56 H23         5.9262   -1.8663    0.9365 H         1 <0>         0.0232
     57 H24         5.2187   -3.2206    0.0332 H         1 <0>         0.0232
     58 H25        -5.8113   -1.0875   -0.9262 H         1 <0>         0.0295
     59 H26         4.3848    0.5478   -2.4276 H         1 <0>         0.0310
     60 H27         3.6895   -0.5683   -3.5867 H         1 <0>         0.0310
     61 H28        -5.4858   -0.8580   -3.3809 H         1 <0>         0.0232
     62 H29        -6.4219    0.4964   -2.7361 H         1 <0>         0.0232
     63 H30        -4.7122    0.7203   -3.1476 H         1 <0>         0.0232
     64 H31        -5.9896    1.3803   -0.4629 H         1 <0>         0.0232
     65 H32        -4.9038    0.5605    0.6556 H         1 <0>         0.0232
     66 H33        -4.2361    1.5301   -0.6707 H         1 <0>         0.0232
     67 H34         3.0616    2.3299   -1.9153 H         1 <0>         0.0575
     68 H35         0.0931    0.1663   -2.8796 H         1 <0>         0.0274
     69 H36         0.8941   -1.1454   -2.0260 H         1 <0>         0.0274
     70 H37         1.1998   -0.8754   -3.7493 H         1 <0>         0.0274
     71 H38        -0.0051    2.1250   -2.3503 H         1 <0>         0.0357
     72 H39         0.9903    3.4745   -2.6921 H         1 <0>         0.0357
     73 H40         2.2307    4.9685   -1.8598 H         1 <0>         0.0279
     74 H41         2.6823    5.7147   -0.3453 H         1 <0>         0.0279
     75 H42         1.1764    6.2017   -1.1527 H         1 <0>         0.0279
     76 H43        -1.3102    0.6517    2.1599 H         1 <0>         0.0625
     77 H44         0.0424    5.1085    3.8677 H         1 <0>         0.0625
     78 H45        -1.8139    1.2978    4.4772 H         1 <0>         0.0618
     79 H46        -1.1382    3.5252    5.3306 H         1 <0>         0.0618
@<TRIPOS>BOND
     1    1   25 2
     2    2   28 2
     3    3    4 1
     4    3    8 1
     5    3   12 1
     6    3   34 1
     7    4    6 1
     8    4   35 1
     9    4   36 1
    10    5    7 1
    11    5    9 1
    12    5   14 1
    13    5   37 1
    14    6    7 1
    15    6   38 1
    16    6   39 1
    17    7   40 1
    18    7   41 1
    19    8   10 1
    20    8   42 1
    21    8   43 1
    22    9   13 1
    23    9   44 1
    24    9   45 1
    25   10   11 1
    26   10   46 1
    27   10   47 1
    28   11   15 1
    29   11   48 1
    30   11   49 1
    31   12   50 1
    32   12   51 1
    33   12   52 1
    34   13   16 1
    35   13   53 1
    36   13   54 1
    37   14   55 1
    38   14   56 1
    39   14   57 1
    40   15   17 1
    41   15   18 1
    42   15   58 1
    43   16   19 1
    44   16   59 1
    45   16   60 1
    46   17   61 1
    47   17   62 1
    48   17   63 1
    49   18   64 1
    50   18   65 1
    51   18   66 1
    52   19   20 2
    53   19   21 1
    54   20   22 1
    55   20   67 1
    56   21   68 1
    57   21   69 1
    58   21   70 1
    59   22   23 1
    60   22   71 1
    61   22   72 1
    62   23   24 2
    63   23   25 1
    64   24   28 1
    65   24   29 1
    66   25   26 1
    67   26   27 ar
    68   26   30 ar
    69   27   28 1
    70   27   31 ar
    71   29   73 1
    72   29   74 1
    73   29   75 1
    74   30   32 ar
    75   30   76 1
    76   31   33 ar
    77   31   77 1
    78   32   33 ar
    79   32   78 1
    80   33   79 1
