@<TRIPOS>MOLECULE
DB01167
   87    93     0     0     0
SMALL
USER_CHARGES

@<TRIPOS>ATOM
      1 Cl1        -7.4014   -1.8028   -1.9143 Cl        1 <0>        -0.0830
      2 Cl2       -12.4432   -3.4790   -2.7719 Cl        1 <0>        -0.0835
      3 O1         -7.4173    0.0734   -0.1101 O.3       1 <0>        -0.3342
      4 O2         -9.2820    1.2921    0.6145 O.3       1 <0>        -0.3406
      5 O3         -5.4152   -1.1309    1.5559 O.3       1 <0>        -0.4893
      6 O4          8.7525    0.9864   -1.8013 O.2       1 <0>        -0.2444
      7 N1          0.0981   -0.8952    0.9338 N.pl3     1 <0>        -0.3269
      8 N2          2.9550   -0.7705    0.6075 N.pl3     1 <0>        -0.3269
      9 N3         -7.4673    2.7538   -1.0662 N.pl3     1 <0>        -0.2465
     10 N4          8.4906   -0.5295   -0.0278 N.am      1 <0>        -0.2501
     11 N5         -7.9498    3.8518   -0.4648 N.2       1 <0>        -0.1582
     12 N6         10.5446   -0.0717   -0.6922 N.am      1 <0>        -0.2101
     13 N7         -5.6638    3.8727   -0.5455 N.2       1 <0>        -0.2228
     14 N8         10.6541   -0.9625    0.3331 N.2       1 <0>        -0.1566
     15 C1         -8.6698    0.6555   -0.5254 C.3       1 <0>         0.2186
     16 C2         -7.4701    0.0637    1.3181 C.3       1 <0>         0.1195
     17 C3         -8.2776    1.2970    1.6290 C.3       1 <0>         0.0808
     18 C4          0.8684   -2.0861    0.5763 C.3       1 <0>         0.0280
     19 C5          0.8238    0.3612    1.1206 C.3       1 <0>         0.0280
     20 C6          2.3046   -1.9859    1.0975 C.3       1 <0>         0.0280
     21 C7          2.1092    0.3796    0.2886 C.3       1 <0>         0.0280
     22 C8         -8.3647    1.7242   -1.5743 C.3       1 <0>         0.1018
     23 C9         -9.5956   -0.4051   -1.1026 C.ar      1 <0>         0.0313
     24 C10        -6.0740    0.0780    1.9022 C.3       1 <0>         0.1179
     25 C11        -1.2841   -0.9552    1.0907 C.ar      1 <0>         0.0300
     26 C12         4.3369   -0.7106    0.4488 C.ar      1 <0>         0.0299
     27 C13        -9.0990   -1.5408   -1.7424 C.ar      1 <0>         0.0507
     28 C14       -10.9726   -0.2203   -0.9788 C.ar      1 <0>        -0.0507
     29 C15        -1.9229   -0.0923    1.9811 C.ar      1 <0>        -0.0372
     30 C16        -2.0299   -1.8768    0.3559 C.ar      1 <0>        -0.0372
     31 C17        -4.0537   -1.0729    1.4026 C.ar      1 <0>         0.1207
     32 C18         5.1673   -1.4689    1.2739 C.ar      1 <0>        -0.0387
     33 C19         4.8910    0.1080   -0.5355 C.ar      1 <0>        -0.0387
     34 C20        -3.3078   -0.1512    2.1371 C.ar      1 <0>        -0.0182
     35 C21        -3.4148   -1.9357    0.5120 C.ar      1 <0>        -0.0182
     36 C22         7.1058   -0.5900    0.1310 C.ar      1 <0>         0.0525
     37 C23         6.5518   -1.4086    1.1151 C.ar      1 <0>        -0.0359
     38 C24         6.2754    0.1683   -0.6942 C.ar      1 <0>        -0.0359
     39 C25        -9.9792   -2.4920   -2.2579 C.ar      1 <0>        -0.0246
     40 C26       -11.8530   -1.1715   -1.4946 C.ar      1 <0>        -0.0429
     41 C27        -6.1080    2.7740   -1.1103 C.cat     1 <0>         0.1145
     42 C28        11.6580    0.4873   -1.4121 C.3       1 <0>         0.0548
     43 C29       -11.3563   -2.3072   -2.1343 C.ar      1 <0>         0.0424
     44 C30         9.1948    0.2270   -0.9507 C.2       1 <0>         0.3513
     45 C31        12.5862    1.2775   -0.4807 C.3       1 <0>        -0.0334
     46 C32        -6.8191    4.4960   -0.1690 C.2       1 <0>         0.1379
     47 C33         9.4283   -1.1921    0.6797 C.cat     1 <0>         0.1251
     48 C34        12.4220   -0.6255   -2.1221 C.3       1 <0>        -0.0424
     49 C35        11.8654    2.4020    0.2516 C.3       1 <0>        -0.0634
     50 H1         -8.0053   -0.8482    1.6114 H         1 <0>         0.0654
     51 H2         -8.7478    1.2497    2.6155 H         1 <0>         0.0588
     52 H3         -7.6928    2.2171    1.5774 H         1 <0>         0.0588
     53 H4          0.4192   -2.9892    1.0077 H         1 <0>         0.0479
     54 H5          0.8751   -2.1992   -0.5150 H         1 <0>         0.0479
     55 H6          0.2131    1.2181    0.8102 H         1 <0>         0.0479
     56 H7          1.0661    0.4851    2.1835 H         1 <0>         0.0479
     57 H8          2.3033   -1.9789    2.1946 H         1 <0>         0.0479
     58 H9          2.8434   -2.8817    0.7650 H         1 <0>         0.0479
     59 H10         1.8615    0.3621   -0.7800 H         1 <0>         0.0479
     60 H11         2.6301    1.3216    0.5005 H         1 <0>         0.0479
     61 H12        -7.8738    1.2990   -2.4580 H         1 <0>         0.0567
     62 H13        -9.2749    2.2390   -1.9061 H         1 <0>         0.0567
     63 H14        -6.1219    0.1605    2.9939 H         1 <0>         0.0723
     64 H15        -5.5457    0.9474    1.4891 H         1 <0>         0.0723
     65 H16       -11.3884    0.6605   -0.4976 H         1 <0>         0.0623
     66 H17        -1.3685    0.6221    2.5835 H         1 <0>         0.0637
     67 H18        -1.5655   -2.5519   -0.3575 H         1 <0>         0.0637
     68 H19         4.7678   -2.1043    2.0596 H         1 <0>         0.0637
     69 H20         4.2706    0.6987   -1.2042 H         1 <0>         0.0637
     70 H21        -3.7624    0.5157    2.8637 H         1 <0>         0.0655
     71 H22        -3.9921   -2.6526   -0.0655 H         1 <0>         0.0655
     72 H23         7.1496   -2.0157    1.7856 H         1 <0>         0.0639
     73 H24         6.6235    0.8226   -1.4805 H         1 <0>         0.0639
     74 H25        -9.5937   -3.3782   -2.7574 H         1 <0>         0.0647
     75 H26       -12.9236   -1.0130   -1.3938 H         1 <0>         0.0632
     76 H27        -5.5101    1.9876   -1.5491 H         1 <0>         0.1044
     77 H28        11.2670    1.1707   -2.1759 H         1 <0>         0.0544
     78 H29        13.4074    1.7076   -1.0668 H         1 <0>         0.0283
     79 H30        13.0418    0.6110    0.2621 H         1 <0>         0.0283
     80 H31        -6.8373    5.4491    0.3380 H         1 <0>         0.1065
     81 H32         9.1525   -1.8745    1.4886 H         1 <0>         0.1052
     82 H33        12.8527   -1.3391   -1.4107 H         1 <0>         0.0250
     83 H34        11.7605   -1.1856   -2.7923 H         1 <0>         0.0250
     84 H35        13.2396   -0.2135   -2.7229 H         1 <0>         0.0250
     85 H36        11.1083    2.0165    0.9411 H         1 <0>         0.0230
     86 H37        12.5818    2.9850    0.8395 H         1 <0>         0.0230
     87 H38        11.3770    3.0804   -0.4552 H         1 <0>         0.0230
@<TRIPOS>BOND
     1    1   27 1
     2    2   43 1
     3    3   15 1
     4    3   16 1
     5    4   15 1
     6    4   17 1
     7    5   24 1
     8    5   31 1
     9    6   44 2
    10    7   18 1
    11    7   19 1
    12    7   25 1
    13    8   20 1
    14    8   21 1
    15    8   26 1
    16    9   11 1
    17    9   22 1
    18    9   41 2
    19   10   36 1
    20   10   44 am
    21   10   47 2
    22   11   46 1
    23   12   14 2
    24   12   42 1
    25   12   44 am
    26   13   41 1
    27   13   46 2
    28   14   47 1
    29   15   22 1
    30   15   23 1
    31   16   17 1
    32   16   24 1
    33   16   50 1
    34   17   51 1
    35   17   52 1
    36   18   20 1
    37   18   53 1
    38   18   54 1
    39   19   21 1
    40   19   55 1
    41   19   56 1
    42   20   57 1
    43   20   58 1
    44   21   59 1
    45   21   60 1
    46   22   61 1
    47   22   62 1
    48   23   27 ar
    49   23   28 ar
    50   24   63 1
    51   24   64 1
    52   25   29 ar
    53   25   30 ar
    54   26   32 ar
    55   26   33 ar
    56   27   39 ar
    57   28   40 ar
    58   28   65 1
    59   29   34 ar
    60   29   66 1
    61   30   35 ar
    62   30   67 1
    63   31   34 ar
    64   31   35 ar
    65   32   37 ar
    66   32   68 1
    67   33   38 ar
    68   33   69 1
    69   34   70 1
    70   35   71 1
    71   36   37 ar
    72   36   38 ar
    73   37   72 1
    74   38   73 1
    75   39   43 ar
    76   39   74 1
    77   40   43 ar
    78   40   75 1
    79   41   76 1
    80   42   45 1
    81   42   48 1
    82   42   77 1
    83   45   49 1
    84   45   78 1
    85   45   79 1
    86   46   80 1
    87   47   81 1
    88   48   82 1
    89   48   83 1
    90   48   84 1
    91   49   85 1
    92   49   86 1
    93   49   87 1
