@<TRIPOS>MOLECULE
DB01581
   30    31     0     0     0
SMALL
USER_CHARGES

@<TRIPOS>ATOM
      1 S1         -0.4440    2.8664    0.0393 S.o2      1 <0>         0.0746
      2 O1         -1.1904    3.7483    0.9287 O.2       1 <0>        -0.1499
      3 O2         -0.1023    3.3411   -1.2961 O.2       1 <0>        -0.1499
      4 N1          0.9879    2.3683    0.8579 N.pl3     1 <0>        -0.1836
      5 N2          1.7398    0.1410    1.0545 N.ar      1 <0>        -0.2185
      6 N3          2.3220    1.4712   -0.8687 N.ar      1 <0>        -0.2217
      7 N4         -3.5051   -2.2061   -0.4688 N.pl3     1 <0>        -0.3580
      8 C1         -1.3426    1.3769   -0.1099 C.ar      1 <0>         0.1087
      9 C2         -2.2342    0.9969    0.8932 C.ar      1 <0>        -0.0333
     10 C3         -1.1690    0.5667   -1.2322 C.ar      1 <0>        -0.0333
     11 C4         -2.7785   -1.0032   -0.3477 C.ar      1 <0>         0.0247
     12 C5         -2.9521   -0.1932    0.7742 C.ar      1 <0>        -0.0392
     13 C6         -1.8869   -0.6232   -1.3511 C.ar      1 <0>        -0.0392
     14 C7          1.7273    1.2605    0.3152 C.ar      1 <0>         0.2349
     15 C8          2.4424   -0.8773    0.5166 C.ar      1 <0>         0.0433
     16 C9          3.1025   -0.7989   -0.6928 C.ar      1 <0>        -0.0224
     17 C10         3.0068    0.4119   -1.3477 C.ar      1 <0>         0.0329
     18 C11         2.4883   -2.1474    1.2984 C.3       1 <0>        -0.0222
     19 H1          0.9121    2.3344    1.8829 H         1 <0>         0.1767
     20 H2         -2.3801    1.6079    1.7795 H         1 <0>         0.0638
     21 H3         -0.4799    0.8418   -2.0257 H         1 <0>         0.0638
     22 H4         -3.6427   -0.4793    1.5635 H         1 <0>         0.0636
     23 H5         -1.7425   -1.2461   -2.2300 H         1 <0>         0.0636
     24 H6          3.6614   -1.6268   -1.1097 H         1 <0>         0.0651
     25 H7          3.4920    0.5684   -2.3052 H         1 <0>         0.0831
     26 H8          1.9213   -2.0559    2.2309 H         1 <0>         0.0293
     27 H9          2.0530   -2.9673    0.7183 H         1 <0>         0.0293
     28 H10         3.5220   -2.3996    1.5552 H         1 <0>         0.0293
     29 H11        -4.1504   -2.4831    0.2590 H         1 <0>         0.1423
     30 H12        -3.3781   -2.7945   -1.2815 H         1 <0>         0.1423
@<TRIPOS>BOND
     1    1    2 2
     2    1    3 2
     3    1    4 1
     4    1    8 1
     5    4   14 1
     6    4   19 1
     7    5   14 ar
     8    5   15 ar
     9    6   14 ar
    10    6   17 ar
    11    7   11 1
    12    7   29 1
    13    7   30 1
    14    8    9 ar
    15    8   10 ar
    16    9   12 ar
    17    9   20 1
    18   10   13 ar
    19   10   21 1
    20   11   12 ar
    21   11   13 ar
    22   12   22 1
    23   13   23 1
    24   15   16 ar
    25   15   18 1
    26   16   17 ar
    27   16   24 1
    28   17   25 1
    29   18   26 1
    30   18   27 1
    31   18   28 1
