@<TRIPOS>MOLECULE
DB01033
   14    15     0     0     0
SMALL
USER_CHARGES

@<TRIPOS>ATOM
      1 S1          0.0453   -3.1857    0.0014 S.2       1 <0>        -0.0284
      2 N1         -1.7421   -0.4764   -0.0004 N.pl3     1 <0>        -0.3411
      3 N2          1.2939    1.1588    0.0010 N.pl3     1 <0>        -0.3292
      4 N3         -1.0795    1.6571    0.0011 N.2       1 <0>        -0.2183
      5 N4          1.9070   -1.1899   -0.0010 N.2       1 <0>        -0.2281
      6 C1         -0.3729   -0.5129    0.0008 C.2       1 <0>         0.1162
      7 C2         -0.0079    0.8161    0.0015 C.cat     1 <0>         0.1598
      8 C3          0.5773   -1.5991    0.0008 C.2       1 <0>         0.1361
      9 C4         -2.1161    0.8441   -0.0004 C.2       1 <0>         0.0962
     10 C5          2.1661    0.0873   -0.0008 C.2       1 <0>         0.0962
     11 H1         -2.3639   -1.2740   -0.0013 H         1 <0>         0.1669
     12 H2          1.6310    2.1156    0.0007 H         1 <0>         0.1682
     13 H3         -3.1554    1.1407   -0.0013 H         1 <0>         0.1027
     14 H4          3.2172    0.4184   -0.0020 H         1 <0>         0.1027
@<TRIPOS>BOND
     1    1    8 2
     2    2    6 2
     3    2    9 1
     4    2   11 1
     5    3    7 2
     6    3   10 1
     7    3   12 1
     8    4    7 1
     9    4    9 2
    10    5    8 1
    11    5   10 2
    12    6    7 1
    13    6    8 1
    14    9   13 1
    15   10   14 1
