@<TRIPOS>MOLECULE
DB01095
   56    58     0     0     0
SMALL
USER_CHARGES

@<TRIPOS>ATOM
      1 F1         -2.6326   -5.0235   -0.4261 F         1 <0>        -0.2055
      2 O1         -1.6799    3.6157    0.1947 O.3       1 <0>        -0.3877
      3 O2         -3.5657    0.2077   -1.4588 O.3       1 <0>        -0.3912
      4 O3         -6.6920    1.0346    1.2747 O.3       1 <0>        -0.4806
      5 O4         -6.3440    0.8231   -0.9596 O.2       1 <0>        -0.2509
      6 N1          2.4329    0.7442   -0.1815 N.pl3     1 <0>        -0.3372
      7 C1          2.6670    2.1669   -0.3464 C.3       1 <0>         0.0295
      8 C2          1.2530    0.0920   -0.3447 C.cat     1 <0>         0.0507
      9 C3          3.4082   -0.1599    0.1741 C.ar      1 <0>         0.0503
     10 C4          1.4308   -1.2346   -0.1022 C.2       1 <0>         0.0147
     11 C5          2.8021   -1.4168    0.2312 C.ar      1 <0>         0.0082
     12 C6          0.1026    0.8594   -0.7171 C.2       1 <0>        -0.0391
     13 C7          3.6494    2.4572   -1.4826 C.3       1 <0>        -0.0445
     14 C8          3.1047    2.8301    0.9609 C.3       1 <0>        -0.0445
     15 C9          0.3813   -2.2133   -0.1858 C.ar      1 <0>        -0.0151
     16 C10         4.7666    0.0366    0.4468 C.ar      1 <0>        -0.0376
     17 C11         3.5884   -2.5337    0.5773 C.ar      1 <0>        -0.0520
     18 C12        -1.9077    2.2808   -0.2504 C.3       1 <0>         0.0761
     19 C13        -3.1918    1.7231    0.3861 C.3       1 <0>         0.0034
     20 C14        -0.7135    1.4622    0.1627 C.2       1 <0>        -0.0539
     21 C15        -3.5047    0.2794   -0.0364 C.3       1 <0>         0.0679
     22 C16         5.5264   -1.0859    0.7879 C.ar      1 <0>        -0.0598
     23 C17         4.9485   -2.3522    0.8528 C.ar      1 <0>        -0.0611
     24 C18        -0.3866   -2.5082    0.9398 C.ar      1 <0>        -0.0512
     25 C19         0.1329   -2.8660   -1.3924 C.ar      1 <0>        -0.0512
     26 C20        -4.8071   -0.2535    0.5649 C.3       1 <0>         0.0708
     27 C21        -1.4051   -3.4579    0.8585 C.ar      1 <0>        -0.0259
     28 C22        -0.8856   -3.8156   -1.4736 C.ar      1 <0>        -0.0259
     29 C23        -1.6545   -4.1115   -0.3482 C.ar      1 <0>         0.1234
     30 C24        -6.0158    0.5739    0.1934 C.2       1 <0>         0.3072
     31 H1          1.7264    2.6449   -0.6347 H         1 <0>         0.0522
     32 H2         -0.1041    0.9379   -1.7815 H         1 <0>         0.0636
     33 H3          3.6564    3.5307   -1.7041 H         1 <0>         0.0249
     34 H4          3.3517    1.9343   -2.3986 H         1 <0>         0.0249
     35 H5          4.6803    2.1765   -1.2600 H         1 <0>         0.0249
     36 H6          2.4198    2.5729    1.7767 H         1 <0>         0.0249
     37 H7          3.0881    3.9204    0.8491 H         1 <0>         0.0249
     38 H8          4.1142    2.5628    1.2776 H         1 <0>         0.0249
     39 H9          5.2536    1.0013    0.4078 H         1 <0>         0.0638
     40 H10         3.1534   -3.5276    0.6324 H         1 <0>         0.0624
     41 H11        -2.0059    2.3150   -1.3414 H         1 <0>         0.0638
     42 H12        -3.1330    1.7917    1.4803 H         1 <0>         0.0318
     43 H13        -4.0131    2.3883    0.0895 H         1 <0>         0.0318
     44 H14        -0.5081    1.3853    1.2285 H         1 <0>         0.0598
     45 H15        -2.6933   -0.3819    0.2852 H         1 <0>         0.0599
     46 H16         6.5850   -0.9683    1.0058 H         1 <0>         0.0618
     47 H17         5.5599   -3.2101    1.1202 H         1 <0>         0.0618
     48 H18        -0.2060   -2.0068    1.8878 H         1 <0>         0.0624
     49 H19         0.7231   -2.6471   -2.2791 H         1 <0>         0.0624
     50 H20        -5.0053   -1.2748    0.2195 H         1 <0>         0.0403
     51 H21        -4.7182   -0.2898    1.6570 H         1 <0>         0.0403
     52 H22        -2.0048   -3.6876    1.7342 H         1 <0>         0.0646
     53 H23        -1.0802   -4.3247   -2.4129 H         1 <0>         0.0646
     54 H24        -2.4560    4.1446   -0.0578 H         1 <0>         0.2102
     55 H25        -3.7256   -0.7208   -1.6991 H         1 <0>         0.2098
     56 H26        -7.4666    1.5787    1.0176 H         1 <0>         0.2951
@<TRIPOS>BOND
     1    1   29 1
     2    2   18 1
     3    2   54 1
     4    3   21 1
     5    3   55 1
     6    4   30 1
     7    4   56 1
     8    5   30 2
     9    6    7 1
    10    6    8 1
    11    6    9 2
    12    7   13 1
    13    7   14 1
    14    7   31 1
    15    8   10 1
    16    8   12 1
    17    9   11 ar
    18    9   16 ar
    19   10   11 2
    20   10   15 1
    21   11   17 ar
    22   12   20 2
    23   12   32 1
    24   13   33 1
    25   13   34 1
    26   13   35 1
    27   14   36 1
    28   14   37 1
    29   14   38 1
    30   15   24 ar
    31   15   25 ar
    32   16   22 ar
    33   16   39 1
    34   17   23 ar
    35   17   40 1
    36   18   19 1
    37   18   20 1
    38   18   41 1
    39   19   21 1
    40   19   42 1
    41   19   43 1
    42   20   44 1
    43   21   26 1
    44   21   45 1
    45   22   23 ar
    46   22   46 1
    47   23   47 1
    48   24   27 ar
    49   24   48 1
    50   25   28 ar
    51   25   49 1
    52   26   30 1
    53   26   50 1
    54   26   51 1
    55   27   29 ar
    56   27   52 1
    57   28   29 ar
    58   28   53 1
