@<TRIPOS>MOLECULE
DB01189
   12    11     0     0     0
SMALL
USER_CHARGES

@<TRIPOS>ATOM
      1 F1          0.2606   -1.2356    0.9650 F         1 <0>        -0.2047
      2 F2          1.9754    1.1103   -1.0105 F         1 <0>        -0.1654
      3 F3          2.7374   -0.7060   -0.0762 F         1 <0>        -0.1654
      4 F4          1.9565    0.9135    1.1636 F         1 <0>        -0.1654
      5 F5         -2.7642    1.1746    0.1309 F         1 <0>        -0.1782
      6 F6         -2.0875   -0.4711   -1.1258 F         1 <0>        -0.1782
      7 O1         -0.5694    0.6584    0.0711 O.3       1 <0>        -0.2800
      8 C1          0.4057   -0.3675   -0.0711 C.3       1 <0>         0.2999
      9 C2          1.7801    0.2428    0.0059 C.3       1 <0>         0.4461
     10 C3         -1.8890    0.1422    0.0669 C.3       1 <0>         0.3491
     11 H1          0.2705   -0.9103   -1.0123 H         1 <0>         0.1061
     12 H2         -2.0760   -0.5513    0.8924 H         1 <0>         0.1361
@<TRIPOS>BOND
     1    1    8 1
     2    2    9 1
     3    3    9 1
     4    4    9 1
     5    5   10 1
     6    6   10 1
     7    7    8 1
     8    7   10 1
     9    8    9 1
    10    8   11 1
    11   10   12 1
