@<TRIPOS>MOLECULE
DB01085
   31    32     0     0     0
SMALL
USER_CHARGES

@<TRIPOS>ATOM
      1 O1          1.6990   -2.0127    1.3536 O.3       1 <0>        -0.4641
      2 O2          3.4156   -0.6321    1.9843 O.2       1 <0>        -0.2505
      3 N1         -2.8943    0.5410    0.0075 N.pl3     1 <0>        -0.3370
      4 N2         -4.0597   -1.2932   -0.4510 N.2       1 <0>        -0.2438
      5 C1          0.2546   -0.4245    0.4397 C.3       1 <0>         0.0116
      6 C2          1.6384    0.2068    0.5539 C.3       1 <0>         0.0624
      7 C3         -0.5828   -0.0279   -0.7632 C.3       1 <0>        -0.0041
      8 C4          0.5619   -1.9058    0.4908 C.3       1 <0>         0.0964
      9 C5          2.3851    0.4266   -0.7536 C.3       1 <0>        -0.0426
     10 C6          2.3664   -0.8189    1.3870 C.2       1 <0>         0.3106
     11 C7         -2.0370   -0.3421   -0.5469 C.cat     1 <0>         0.0381
     12 C8          3.8116    0.8931   -0.5146 C.3       1 <0>        -0.0645
     13 C9         -2.7499   -1.4604   -0.8253 C.2       1 <0>         0.0486
     14 C10        -4.1129   -0.0778    0.0472 C.cat     1 <0>         0.0959
     15 C11        -2.6137    1.8777    0.4753 C.3       1 <0>         0.0130
     16 H1         -0.2809   -0.1678    1.3664 H         1 <0>         0.0345
     17 H2          1.5650    1.1420    1.1213 H         1 <0>         0.0417
     18 H3         -0.2361   -0.5389   -1.6703 H         1 <0>         0.0332
     19 H4         -0.4728    1.0450   -0.9606 H         1 <0>         0.0332
     20 H5         -0.2640   -2.4827    0.9176 H         1 <0>         0.0700
     21 H6          0.8261   -2.3326   -0.4827 H         1 <0>         0.0700
     22 H7          1.8673    1.1875   -1.3485 H         1 <0>         0.0271
     23 H8          2.4114   -0.4896   -1.3557 H         1 <0>         0.0271
     24 H9          3.8510    1.7218    0.1995 H         1 <0>         0.0230
     25 H10         4.4553    0.0839   -0.1586 H         1 <0>         0.0230
     26 H11         4.2449    1.2462   -1.4568 H         1 <0>         0.0230
     27 H12        -2.4089   -2.3824   -1.2729 H         1 <0>         0.0848
     28 H13        -4.9979    0.3999    0.4454 H         1 <0>         0.1029
     29 H14        -3.5021    2.2848    0.9652 H         1 <0>         0.0456
     30 H15        -1.7897    1.8361    1.1913 H         1 <0>         0.0456
     31 H16        -2.3509    2.4971   -0.3856 H         1 <0>         0.0456
@<TRIPOS>BOND
     1    1    8 1
     2    1   10 1
     3    2   10 2
     4    3   11 1
     5    3   14 2
     6    3   15 1
     7    4   13 2
     8    4   14 1
     9    5    6 1
    10    5    7 1
    11    5    8 1
    12    5   16 1
    13    6    9 1
    14    6   10 1
    15    6   17 1
    16    7   11 1
    17    7   18 1
    18    7   19 1
    19    8   20 1
    20    8   21 1
    21    9   12 1
    22    9   22 1
    23    9   23 1
    24   11   13 1
    25   12   24 1
    26   12   25 1
    27   12   26 1
    28   13   27 1
    29   14   28 1
    30   15   29 1
    31   15   30 1
    32   15   31 1
