@<TRIPOS>MOLECULE
DB01006
   33    35     0     0     0
SMALL
USER_CHARGES

@<TRIPOS>ATOM
      1 N1          0.1111   -2.0638    0.0991 N.pl3     1 <0>        -0.2402
      2 N2          0.6459   -2.2554   -1.0846 N.2       1 <0>        -0.1575
      3 N3         -0.0705   -4.1793   -0.0758 N.2       1 <0>        -0.2228
      4 N4         -5.9885    2.4264   -0.5419 N.1       1 <0>        -0.1909
      5 N5          5.7424    2.8793   -0.7978 N.1       1 <0>        -0.1909
      6 C1          0.0336   -0.6673    0.6363 C.3       1 <0>         0.1042
      7 C2         -1.2739    0.0033    0.3812 C.ar      1 <0>        -0.0186
      8 C3          1.3117    0.1276    0.3161 C.ar      1 <0>        -0.0186
      9 C4         -1.8332    0.8338    1.3523 C.ar      1 <0>        -0.0550
     10 C5          2.4221   -0.0855    1.0929 C.ar      1 <0>        -0.0550
     11 C6         -1.9370   -0.1996   -0.8291 C.ar      1 <0>        -0.0550
     12 C7          1.2813    1.0121   -0.7322 C.ar      1 <0>        -0.0550
     13 C8         -0.3154   -3.1587    0.7127 C.cat     1 <0>         0.1153
     14 C9         -3.0559    1.4613    1.1133 C.ar      1 <0>        -0.0440
     15 C10         3.5806    0.6348    0.8021 C.ar      1 <0>        -0.0440
     16 C11        -3.1596    0.4282   -1.0680 C.ar      1 <0>        -0.0440
     17 C12         2.4399    1.7322   -1.0230 C.ar      1 <0>        -0.0440
     18 C13        -3.7190    1.2586   -0.0969 C.ar      1 <0>         0.0518
     19 C14         3.5895    1.5435   -0.2558 C.ar      1 <0>         0.0518
     20 C15         0.5135   -3.5815   -1.1557 C.2       1 <0>         0.1380
     21 C16        -4.9707    1.9028   -0.3423 C.1       1 <0>         0.0992
     22 C17         4.7770    2.2802   -0.5547 C.1       1 <0>         0.0992
     23 H1          0.0647   -0.8435    1.7248 H         1 <0>         0.0646
     24 H2         -1.3266    1.0035    2.2988 H         1 <0>         0.0621
     25 H3          2.4226   -0.7930    1.9161 H         1 <0>         0.0621
     26 H4         -1.5270   -0.8250   -1.6153 H         1 <0>         0.0621
     27 H5          0.4097    1.1724   -1.3552 H         1 <0>         0.0621
     28 H6         -0.7820   -3.1986    1.6870 H         1 <0>         0.1044
     29 H7         -3.4786    2.1065    1.8796 H         1 <0>         0.0630
     30 H8          4.4690    0.4759    1.4088 H         1 <0>         0.0630
     31 H9         -3.6629    0.2635   -2.0178 H         1 <0>         0.0630
     32 H10         2.4327    2.4350   -1.8530 H         1 <0>         0.0630
     33 H11         0.8535   -4.1297   -2.0217 H         1 <0>         0.1065
@<TRIPOS>BOND
     1    1    2 1
     2    1    6 1
     3    1   13 2
     4    2   20 1
     5    3   13 1
     6    3   20 2
     7    4   21 3
     8    5   22 3
     9    6    7 1
    10    6    8 1
    11    6   23 1
    12    7    9 ar
    13    7   11 ar
    14    8   10 ar
    15    8   12 ar
    16    9   14 ar
    17    9   24 1
    18   10   15 ar
    19   10   25 1
    20   11   16 ar
    21   11   26 1
    22   12   17 ar
    23   12   27 1
    24   13   28 1
    25   14   18 ar
    26   14   29 1
    27   15   19 ar
    28   15   30 1
    29   16   18 ar
    30   16   31 1
    31   17   19 ar
    32   17   32 1
    33   18   21 1
    34   19   22 1
    35   20   33 1
