@<TRIPOS>MOLECULE
DB01613
   26    25     0     0     0
SMALL
USER_CHARGES

@<TRIPOS>ATOM
      1 O1         -0.4712   -1.6118   -0.7954 O.3       1 <0>        -0.2053
      2 O2          0.4118    1.6057    0.7370 O.3       1 <0>        -0.2053
      3 O3         -2.4773    0.2860   -0.5621 O.3       1 <0>        -0.2124
      4 O4          2.4792   -0.2996    0.5896 O.3       1 <0>        -0.2124
      5 O5         -0.8613   -2.9267    0.9353 O.3       1 <0>        -0.5338
      6 O6          0.8321    2.9071   -0.9964 O.3       1 <0>        -0.5338
      7 O7         -0.8280   -3.8371   -1.0999 O.2       1 <0>         0.0934
      8 O8          0.6673    3.8479    1.0184 O.2       1 <0>         0.0934
      9 O9         -4.1712    0.5024    0.8432 O.3       1 <0>        -0.5338
     10 O10         4.2414   -0.4524   -0.7383 O.3       1 <0>        -0.5338
     11 O11        -4.4628    1.1342   -1.2751 O.2       1 <0>         0.0934
     12 O12         4.4417   -1.1388    1.3738 O.2       1 <0>         0.0934
     13 N1         -0.7436   -2.9104   -0.2906 N.pl3     1 <0>         0.2848
     14 N2          0.6570    2.9059    0.2228 N.pl3     1 <0>         0.2848
     15 N3         -3.8224    0.6793   -0.3245 N.pl3     1 <0>         0.2844
     16 N4          3.8403   -0.6664    0.4063 N.pl3     1 <0>         0.2844
     17 C1         -0.3940   -0.6141    0.2243 C.3       1 <0>         0.2640
     18 C2          0.4222    0.5898   -0.2680 C.3       1 <0>         0.2640
     19 C3         -1.8237   -0.2260    0.5953 C.3       1 <0>         0.2142
     20 C4          1.8732    0.2343   -0.5836 C.3       1 <0>         0.2142
     21 H1          0.1121   -0.9755    1.1299 H         1 <0>         0.0887
     22 H2         -0.0623    0.9194   -1.1977 H         1 <0>         0.0887
     23 H3         -2.3831   -1.0924    0.9639 H         1 <0>         0.0812
     24 H4         -1.8004    0.5357    1.3849 H         1 <0>         0.0812
     25 H5          1.8890   -0.5140   -1.3861 H         1 <0>         0.0812
     26 H6          2.4342    1.1173   -0.9070 H         1 <0>         0.0812
@<TRIPOS>BOND
     1    1   13 1
     2    1   17 1
     3    2   14 1
     4    2   18 1
     5    3   15 1
     6    3   19 1
     7    4   16 1
     8    4   20 1
     9    5   13 1
    10    6   14 1
    11    7   13 2
    12    8   14 2
    13    9   15 1
    14   10   16 1
    15   11   15 2
    16   12   16 2
    17   17   18 1
    18   17   19 1
    19   17   21 1
    20   18   20 1
    21   18   22 1
    22   19   23 1
    23   19   24 1
    24   20   25 1
    25   20   26 1
