@<TRIPOS>MOLECULE
DB01210
   46    47     0     0     0
SMALL
USER_CHARGES

@<TRIPOS>ATOM
      1 O1         -0.6552    1.6246    0.5284 O.3       1 <0>        -0.4891
      2 O2          1.3993    3.3925    1.2740 O.3       1 <0>        -0.3872
      3 O3         -5.3750   -1.8946   -0.6134 O.2       1 <0>        -0.2920
      4 N1          2.4571    0.4407   -0.6945 N.3       1 <0>        -0.3088
      5 C1          3.1768   -0.7693   -0.3210 C.3       1 <0>         0.0108
      6 C2         -1.4231   -1.1201    0.4458 C.3       1 <0>        -0.0232
      7 C3         -2.3934   -0.0037    0.1689 C.ar      1 <0>         0.0047
      8 C4          2.2487    1.3008    0.4624 C.3       1 <0>         0.0256
      9 C5         -2.1447   -2.3575    0.9634 C.3       1 <0>        -0.0419
     10 C6          1.5030    2.5863    0.0968 C.3       1 <0>         0.1015
     11 C7         -3.2393   -2.7821   -0.0017 C.3       1 <0>         0.0108
     12 C8         -3.7285   -0.2617   -0.1789 C.ar      1 <0>         0.0240
     13 C9          3.3754   -1.6265   -1.5756 C.3       1 <0>        -0.0473
     14 C10         4.5359   -0.3683    0.2623 C.3       1 <0>        -0.0473
     15 C11         2.3631   -1.5435    0.7227 C.3       1 <0>        -0.0473
     16 C12        -1.9488    1.3252    0.2142 C.ar      1 <0>         0.1244
     17 C13         0.0993    2.3356   -0.4496 C.3       1 <0>         0.1166
     18 C14        -4.2187   -1.6613   -0.2727 C.2       1 <0>         0.1635
     19 C15        -4.6066    0.7943   -0.4506 C.ar      1 <0>        -0.0508
     20 C16        -2.8248    2.3765   -0.0575 C.ar      1 <0>        -0.0196
     21 C17        -4.1520    2.1111   -0.3865 C.ar      1 <0>        -0.0576
     22 H1         -0.8817   -1.3525   -0.4786 H         1 <0>         0.0315
     23 H2         -0.6939   -0.8133    1.2037 H         1 <0>         0.0315
     24 H3          1.6834    0.8166    1.2646 H         1 <0>         0.0451
     25 H4          3.1945    1.6299    0.9054 H         1 <0>         0.0451
     26 H5         -1.4288   -3.1758    1.0998 H         1 <0>         0.0273
     27 H6         -2.5847   -2.1445    1.9464 H         1 <0>         0.0273
     28 H7          1.5588    0.1884   -1.1048 H         1 <0>         0.1225
     29 H8          2.0859    3.1546   -0.6381 H         1 <0>         0.0640
     30 H9         -3.7906   -3.6238    0.4318 H         1 <0>         0.0345
     31 H10        -2.8148   -3.1039   -0.9590 H         1 <0>         0.0345
     32 H11         3.9460   -1.0876   -2.3410 H         1 <0>         0.0247
     33 H12         3.9229   -2.5472   -1.3434 H         1 <0>         0.0247
     34 H13         2.4153   -1.9174   -2.0179 H         1 <0>         0.0247
     35 H14         4.4748    0.0393    1.2769 H         1 <0>         0.0247
     36 H15         5.0554    0.3567   -0.3756 H         1 <0>         0.0247
     37 H16         5.1884   -1.2475    0.3355 H         1 <0>         0.0247
     38 H17         1.3413   -1.7271    0.3805 H         1 <0>         0.0247
     39 H18         2.8153   -2.5297    0.8892 H         1 <0>         0.0247
     40 H19         2.3288   -1.0673    1.7072 H         1 <0>         0.0247
     41 H20         0.1254    1.7707   -1.3881 H         1 <0>         0.0723
     42 H21        -0.3690    3.3068   -0.6470 H         1 <0>         0.0723
     43 H22        -5.6444    0.6124   -0.7160 H         1 <0>         0.0625
     44 H23        -2.4993    3.4113    0.0015 H         1 <0>         0.0654
     45 H24        -4.8342    2.9306   -0.5934 H         1 <0>         0.0619
     46 H25         0.9565    4.2212    1.0235 H         1 <0>         0.2100
@<TRIPOS>BOND
     1    1   16 1
     2    1   17 1
     3    2   10 1
     4    2   46 1
     5    3   18 2
     6    4    5 1
     7    4    8 1
     8    4   28 1
     9    5   13 1
    10    5   14 1
    11    5   15 1
    12    6    7 1
    13    6    9 1
    14    6   22 1
    15    6   23 1
    16    7   12 ar
    17    7   16 ar
    18    8   10 1
    19    8   24 1
    20    8   25 1
    21    9   11 1
    22    9   26 1
    23    9   27 1
    24   10   17 1
    25   10   29 1
    26   11   18 1
    27   11   30 1
    28   11   31 1
    29   12   18 1
    30   12   19 ar
    31   13   32 1
    32   13   33 1
    33   13   34 1
    34   14   35 1
    35   14   36 1
    36   14   37 1
    37   15   38 1
    38   15   39 1
    39   15   40 1
    40   16   20 ar
    41   17   41 1
    42   17   42 1
    43   19   21 ar
    44   19   43 1
    45   20   21 ar
    46   20   44 1
    47   21   45 1
