@<TRIPOS>MOLECULE
DB01610
   47    48     0     0     0
SMALL
USER_CHARGES

@<TRIPOS>ATOM
      1 O1         -0.8732    1.2346   -0.3262 O.3       1 <0>        -0.3504
      2 O2          1.8934    1.3709    0.0887 O.3       1 <0>        -0.4609
      3 O3         -1.1016    3.3604   -2.0919 O.3       1 <0>        -0.3923
      4 O4          3.3768    1.4467    1.8509 O.2       1 <0>        -0.2491
      5 O5         -4.7801   -3.9283   -0.7410 O.2       1 <0>        -0.2633
      6 N1         -1.8764   -0.6970    0.4572 N.pl3     1 <0>        -0.2922
      7 N2          5.1823   -0.0797    0.5082 N.3       1 <0>        -0.3182
      8 N3         -4.2151   -0.0534    0.3313 N.pl3     1 <0>        -0.3122
      9 N4         -2.1107   -2.8379   -0.1250 N.2       1 <0>        -0.2286
     10 N5         -5.6865   -1.8383   -0.3138 N.2       1 <0>        -0.1756
     11 N6         -6.4870    0.3301    0.1473 N.pl3     1 <0>        -0.3289
     12 C1          3.1524   -1.1645   -0.4930 C.3       1 <0>        -0.0211
     13 C2          3.8953    0.1480   -0.1510 C.3       1 <0>         0.1057
     14 C3         -0.2503    2.4860   -0.0267 C.3       1 <0>         0.1178
     15 C4          0.9977    2.2236    0.8086 C.3       1 <0>         0.1208
     16 C5          2.7452   -1.9188    0.7773 C.3       1 <0>        -0.0607
     17 C6          3.9454   -2.0972   -1.4159 C.3       1 <0>        -0.0607
     18 C7          3.0575    1.0589    0.7342 C.2       1 <0>         0.3244
     19 C8         -1.2240    0.5412    0.8597 C.3       1 <0>         0.1273
     20 C9          0.0946    3.1667   -1.3447 C.3       1 <0>         0.0737
     21 C10        -3.1872   -0.9013    0.2411 C.2       1 <0>         0.1480
     22 C11        -3.3250   -2.2112   -0.1145 C.2       1 <0>         0.1721
     23 C12        -1.2538   -1.8935    0.2254 C.cat     1 <0>         0.1001
     24 C13        -4.6334   -2.7555   -0.4188 C.2       1 <0>         0.3021
     25 C14        -5.4697   -0.5839    0.0372 C.2       1 <0>         0.1952
     26 H1          2.2268   -0.9051   -1.0241 H         1 <0>         0.0316
     27 H2          4.0999    0.6976   -1.0780 H         1 <0>         0.0577
     28 H3         -0.9654    3.1079    0.5257 H         1 <0>         0.0654
     29 H4          0.7822    1.8042    1.7956 H         1 <0>         0.0724
     30 H5          1.5054    3.1816    0.9824 H         1 <0>         0.0724
     31 H6          2.1791   -2.8204    0.5175 H         1 <0>         0.0233
     32 H7          2.1044   -1.3126    1.4251 H         1 <0>         0.0233
     33 H8          3.6145   -2.2414    1.3593 H         1 <0>         0.0233
     34 H9          3.3396   -2.9633   -1.7033 H         1 <0>         0.0233
     35 H10         4.8539   -2.4699   -0.9315 H         1 <0>         0.0233
     36 H11         4.2371   -1.5741   -2.3326 H         1 <0>         0.0233
     37 H12        -0.3610    0.2225    1.4493 H         1 <0>         0.0801
     38 H13        -1.9210    1.1170    1.4774 H         1 <0>         0.0801
     39 H14         0.5601    4.1428   -1.1802 H         1 <0>         0.0584
     40 H15         0.7631    2.5557   -1.9598 H         1 <0>         0.0584
     41 H16         5.6436    0.8128    0.6805 H         1 <0>         0.1190
     42 H17         5.0404   -0.5096    1.4209 H         1 <0>         0.1190
     43 H18        -0.1857   -2.0227    0.3216 H         1 <0>         0.1030
     44 H19        -4.1166    0.9223    0.5918 H         1 <0>         0.1700
     45 H20        -1.5102    2.4871   -2.2196 H         1 <0>         0.2095
     46 H21        -7.4490    0.0694   -0.0400 H         1 <0>         0.1451
     47 H22        -6.3081    1.2911    0.4173 H         1 <0>         0.1451
@<TRIPOS>BOND
     1    1   14 1
     2    1   19 1
     3    2   15 1
     4    2   18 1
     5    3   20 1
     6    3   45 1
     7    4   18 2
     8    5   24 2
     9    6   19 1
    10    6   21 1
    11    6   23 2
    12    7   13 1
    13    7   41 1
    14    7   42 1
    15    8   21 2
    16    8   25 1
    17    8   44 1
    18    9   22 2
    19    9   23 1
    20   10   24 1
    21   10   25 2
    22   11   25 1
    23   11   46 1
    24   11   47 1
    25   12   13 1
    26   12   16 1
    27   12   17 1
    28   12   26 1
    29   13   18 1
    30   13   27 1
    31   14   15 1
    32   14   20 1
    33   14   28 1
    34   15   29 1
    35   15   30 1
    36   16   31 1
    37   16   32 1
    38   16   33 1
    39   17   34 1
    40   17   35 1
    41   17   36 1
    42   19   37 1
    43   19   38 1
    44   20   39 1
    45   20   40 1
    46   21   22 1
    47   22   24 1
    48   23   43 1
