@<TRIPOS>MOLECULE
DB01331
   45    47     0     0     0
SMALL
USER_CHARGES

@<TRIPOS>ATOM
      1 S1         -0.4906   -0.9655    1.7254 S.3       1 <0>        -0.1284
      2 S2          6.1855    1.4864    0.4091 S.3       1 <0>        -0.1011
      3 O1          1.3237   -3.1343   -1.1154 O.3       1 <0>        -0.3492
      4 O2          1.0511   -0.3560   -2.6186 O.2       1 <0>        -0.2701
      5 O3         -4.7557    0.5653    0.4910 O.3       1 <0>        -0.4460
      6 O4         -1.9749    0.4346   -3.1493 O.3       1 <0>        -0.4763
      7 O5          3.6334   -0.9469   -1.3133 O.2       1 <0>        -0.2754
      8 O6         -1.6271    2.4028   -2.0376 O.2       1 <0>        -0.2437
      9 O7         -6.0667    2.4573    0.4511 O.2       1 <0>        -0.2267
     10 N1         -0.5480   -0.5626   -0.8983 N.am      1 <0>        -0.2439
     11 N2          2.0588   -1.3309    0.3465 N.am      1 <0>        -0.2777
     12 N3         -6.9905    0.3830    0.8125 N.am      1 <0>        -0.2950
     13 C1          1.0056   -1.8542   -0.5340 C.3       1 <0>         0.2424
     14 C2         -0.4076   -1.6489    0.0543 C.3       1 <0>         0.1322
     15 C3          0.5714   -0.8182   -1.6099 C.2       1 <0>         0.2746
     16 C4         -1.5765    0.3238   -0.8861 C.2       1 <0>         0.1254
     17 C5         -2.3938    0.4440    0.1872 C.2       1 <0>         0.0057
     18 C6         -2.1798   -0.3145    1.4952 C.3       1 <0>         0.0221
     19 C7         -3.6040    1.3449    0.2470 C.3       1 <0>         0.1182
     20 C8          3.2968   -0.9183   -0.1306 C.2       1 <0>         0.2203
     21 C9         -1.7228    1.1921   -2.0636 C.2       1 <0>         0.3515
     22 C10         1.2963   -4.2351   -0.2194 C.3       1 <0>         0.0396
     23 C11         4.2182   -0.3998    0.9552 C.3       1 <0>         0.0554
     24 C12         4.5536    1.0376    0.6696 C.2       1 <0>        -0.0015
     25 C13         3.7003    2.1154    0.5804 C.2       1 <0>        -0.0511
     26 C14        -5.9471    1.2429    0.5738 C.2       1 <0>         0.3980
     27 C15         4.3955    3.3256    0.2940 C.2       1 <0>        -0.0545
     28 C16         5.7535    3.1268    0.1755 C.2       1 <0>        -0.0241
     29 H1         -1.1086   -2.4691   -0.1411 H         1 <0>         0.0672
     30 H2          1.8887   -1.2759    1.3475 H         1 <0>         0.1520
     31 H3         -2.3686    0.3496    2.3454 H         1 <0>         0.0424
     32 H4         -2.8881   -1.1478    1.5570 H         1 <0>         0.0424
     33 H5         -3.4699    2.0754    1.0545 H         1 <0>         0.0747
     34 H6         -3.7512    1.9004   -0.6841 H         1 <0>         0.0747
     35 H7          1.6126   -5.1289   -0.7636 H         1 <0>         0.0524
     36 H8          0.2836   -4.3991    0.1581 H         1 <0>         0.0524
     37 H9          1.9858   -4.0730    0.6139 H         1 <0>         0.0524
     38 H10         3.7502   -0.4708    1.9432 H         1 <0>         0.0412
     39 H11         5.1064   -1.0416    0.9714 H         1 <0>         0.0412
     40 H12        -2.0800    0.9757   -3.9607 H         1 <0>         0.2954
     41 H13         2.6282    2.0443    0.7140 H         1 <0>         0.0626
     42 H14         3.9235    4.2929    0.1809 H         1 <0>         0.0623
     43 H15         6.5124    3.8665   -0.0370 H         1 <0>         0.0693
     44 H16        -7.9431    0.7199    0.9022 H         1 <0>         0.1482
     45 H17        -6.8407   -0.6158    0.9068 H         1 <0>         0.1482
@<TRIPOS>BOND
     1    1   14 1
     2    1   18 1
     3    2   24 1
     4    2   28 1
     5    3   13 1
     6    3   22 1
     7    4   15 2
     8    5   19 1
     9    5   26 1
    10    6   21 1
    11    6   40 1
    12    7   20 2
    13    8   21 2
    14    9   26 2
    15   10   14 1
    16   10   15 am
    17   10   16 1
    18   11   13 1
    19   11   20 am
    20   11   30 1
    21   12   26 am
    22   12   44 1
    23   12   45 1
    24   13   14 1
    25   13   15 1
    26   14   29 1
    27   16   17 2
    28   16   21 1
    29   17   18 1
    30   17   19 1
    31   18   31 1
    32   18   32 1
    33   19   33 1
    34   19   34 1
    35   20   23 1
    36   22   35 1
    37   22   36 1
    38   22   37 1
    39   23   24 1
    40   23   38 1
    41   23   39 1
    42   24   25 2
    43   25   27 1
    44   25   41 1
    45   27   28 2
    46   27   42 1
    47   28   43 1
