@<TRIPOS>MOLECULE
DB01253
   47    50     0     0     0
SMALL
USER_CHARGES

@<TRIPOS>ATOM
      1 O1          2.7379   -0.3743    1.3248 O.2       1 <0>        -0.2751
      2 O2          5.7615   -0.9376   -0.9031 O.3       1 <0>        -0.3932
      3 N1         -0.5670   -2.4164   -0.1231 N.3       1 <0>        -0.2971
      4 N2         -5.5697    0.8951   -0.1541 N.pl3     1 <0>        -0.3604
      5 N3          3.2809    0.4380   -0.7881 N.am      1 <0>        -0.3100
      6 C1         -1.5480   -1.3592    0.2521 C.3       1 <0>         0.0397
      7 C2         -1.0507    0.0797   -0.0800 C.2       1 <0>        -0.0254
      8 C3         -2.9443   -1.6927   -0.3933 C.3       1 <0>        -0.0059
      9 C4          1.2424   -0.7823   -0.4902 C.3       1 <0>         0.0669
     10 C5          0.7963   -2.0326    0.2717 C.3       1 <0>         0.0138
     11 C6         -3.8780   -0.5418   -0.2698 C.2       1 <0>        -0.0200
     12 C7         -2.0349    1.1821    0.0030 C.2       1 <0>        -0.0112
     13 C8         -3.3661    0.7601   -0.0932 C.2       1 <0>         0.0103
     14 C9          0.2205    0.3117   -0.4513 C.2       1 <0>        -0.0658
     15 C10        -4.4246    1.6508   -0.0258 C.2       1 <0>         0.0473
     16 C11        -0.8960   -3.7160    0.4718 C.3       1 <0>        -0.0121
     17 C12        -5.2484   -0.4366   -0.3053 C.2       1 <0>         0.0060
     18 C13         2.4925   -0.2349    0.1295 C.2       1 <0>         0.2214
     19 C14        -1.8091    2.5536    0.1720 C.2       1 <0>        -0.0536
     20 C15        -4.2170    3.0209    0.1411 C.2       1 <0>        -0.0378
     21 C16        -2.8845    3.4514    0.2384 C.2       1 <0>        -0.0592
     22 C17         4.5286    1.0783   -0.4391 C.3       1 <0>         0.0434
     23 C18         5.5304    0.0545    0.0906 C.3       1 <0>         0.0623
     24 C19         4.2774    2.1799    0.5825 C.3       1 <0>        -0.0445
     25 H1         -1.6777   -1.3727    1.3461 H         1 <0>         0.0515
     26 H2         -3.3924   -2.5663    0.0930 H         1 <0>         0.0332
     27 H3         -2.8183   -1.9285   -1.4581 H         1 <0>         0.0332
     28 H4          1.4319   -1.0467   -1.5387 H         1 <0>         0.0450
     29 H5          1.5022   -2.8400    0.0349 H         1 <0>         0.0437
     30 H6          0.8399   -1.8908    1.3607 H         1 <0>         0.0437
     31 H7          0.5417    1.3092   -0.7406 H         1 <0>         0.0583
     32 H8         -0.1385   -4.4631    0.2074 H         1 <0>         0.0391
     33 H9         -1.8413   -4.1070    0.0844 H         1 <0>         0.0391
     34 H10        -0.9581   -3.6659    1.5646 H         1 <0>         0.0391
     35 H11        -6.0269   -1.1767   -0.4264 H         1 <0>         0.0810
     36 H12        -0.7994    2.9450    0.2654 H         1 <0>         0.0624
     37 H13        -6.5107    1.2635   -0.1441 H         1 <0>         0.1653
     38 H14        -5.0415    3.7227    0.1948 H         1 <0>         0.0638
     39 H15        -2.6812    4.5117    0.3722 H         1 <0>         0.0618
     40 H16         2.9754    0.5029   -1.7548 H         1 <0>         0.1491
     41 H17         4.9097    1.5163   -1.3690 H         1 <0>         0.0518
     42 H18         6.4895    0.5377    0.3041 H         1 <0>         0.0575
     43 H19         5.2033   -0.4452    1.0068 H         1 <0>         0.0575
     44 H20         5.1930    2.7578    0.7496 H         1 <0>         0.0248
     45 H21         3.9563    1.7929    1.5543 H         1 <0>         0.0248
     46 H22         3.5057    2.8728    0.2288 H         1 <0>         0.0248
     47 H23         4.9076   -1.3610   -1.0961 H         1 <0>         0.2095
@<TRIPOS>BOND
     1    1   18 2
     2    2   23 1
     3    2   47 1
     4    3    6 1
     5    3   10 1
     6    3   16 1
     7    4   15 1
     8    4   17 2
     9    4   37 1
    10    5   18 am
    11    5   22 1
    12    5   40 1
    13    6    7 1
    14    6    8 1
    15    6   25 1
    16    7   12 1
    17    7   14 2
    18    8   11 1
    19    8   26 1
    20    8   27 1
    21    9   10 1
    22    9   14 1
    23    9   18 1
    24    9   28 1
    25   10   29 1
    26   10   30 1
    27   11   13 2
    28   11   17 1
    29   12   13 1
    30   12   19 2
    31   13   15 2
    32   14   31 1
    33   15   20 1
    34   16   32 1
    35   16   33 1
    36   16   34 1
    37   17   35 1
    38   19   21 1
    39   19   36 1
    40   20   21 2
    41   20   38 1
    42   21   39 1
    43   22   23 1
    44   22   24 1
    45   22   41 1
    46   23   42 1
    47   23   43 1
    48   24   44 1
    49   24   45 1
    50   24   46 1
