@<TRIPOS>MOLECULE
DB01066
   51    54     0     0     0
SMALL
USER_CHARGES

@<TRIPOS>ATOM
      1 S1          0.5763   -1.7646   -0.7356 S.3       1 <0>        -0.1308
      2 S2         -4.4689   -0.2325   -1.9056 S.3       1 <0>        -0.0758
      3 S3          6.0836   -2.7354    1.4208 S.3       1 <0>        -0.0604
      4 O1         -0.4989    2.6762    0.1272 O.2       1 <0>        -0.2731
      5 O2         -2.9491    1.8932    0.2303 O.3       1 <0>        -0.4762
      6 O3         -3.5789    0.3220    1.7682 O.2       1 <0>        -0.2437
      7 O4          3.6700    0.8183   -2.2476 O.2       1 <0>        -0.2683
      8 O5          4.5562    2.8436   -0.0568 O.3       1 <0>        -0.3964
      9 N1         -0.8969    0.4268   -0.4625 N.am      1 <0>        -0.2487
     10 N2          2.1406    0.8602   -0.4673 N.am      1 <0>        -0.2963
     11 N3          5.0944    1.6490    0.4415 N.2       1 <0>        -0.0779
     12 N4          4.2738   -1.8660   -0.2076 N.2       1 <0>        -0.2233
     13 N5         -5.7345    1.6360   -0.6450 N.2       1 <0>        -0.2520
     14 N6          4.4147   -4.2190   -0.0248 N.pl3     1 <0>        -0.3375
     15 C1         -0.0125   -0.2029   -1.4265 C.3       1 <0>         0.1043
     16 C2          0.9088    1.0215   -1.2378 C.3       1 <0>         0.1286
     17 C3         -0.2658    1.6205   -0.4134 C.2       1 <0>         0.2440
     18 C4         -1.9784   -0.1877    0.0863 C.2       1 <0>         0.1260
     19 C5         -1.1045   -2.4700   -0.6157 C.3       1 <0>         0.0226
     20 C6         -2.1388   -1.5310    0.0026 C.2       1 <0>        -0.0091
     21 C7         -2.9286    0.6765    0.8073 C.2       1 <0>         0.3517
     22 C8          3.3888    0.7763   -1.0605 C.2       1 <0>         0.2684
     23 C9         -3.2938   -2.2531    0.5025 C.2       1 <0>        -0.0547
     24 C10         4.5049    0.6076   -0.0638 C.2       1 <0>         0.1897
     25 C11        -4.5382   -1.7903    0.3780 C.2       1 <0>        -0.0459
     26 C12        -4.8938   -0.5150   -0.2683 C.2       1 <0>         0.0346
     27 C13         4.9128   -0.7669    0.3325 C.2       1 <0>         0.1067
     28 C14        -5.5570    0.5851    0.2338 C.2       1 <0>         0.0525
     29 C15         5.9198   -1.0384    1.2349 C.2       1 <0>         0.0067
     30 C16        -6.0866    0.7370    1.6058 C.3       1 <0>        -0.0213
     31 C17         4.8083   -2.9572    0.2942 C.2       1 <0>         0.1562
     32 C18        -5.2009    1.3161   -1.8031 C.2       1 <0>         0.0655
     33 C19         5.2528    3.9250    0.5429 C.3       1 <0>         0.1072
     34 H1         -0.4546   -0.2754   -2.4273 H         1 <0>         0.0644
     35 H2          1.0782    1.5823   -2.1656 H         1 <0>         0.0622
     36 H3         -1.0043   -3.3812   -0.0158 H         1 <0>         0.0426
     37 H4         -1.4331   -2.7657   -1.6187 H         1 <0>         0.0426
     38 H5          2.0958    0.7995    0.5475 H         1 <0>         0.1499
     39 H6         -3.1241   -3.2028    1.0012 H         1 <0>         0.0621
     40 H7         -5.3575   -2.3510    0.8201 H         1 <0>         0.0629
     41 H8         -3.5518    2.5153    0.6906 H         1 <0>         0.2954
     42 H9          6.5528   -0.3530    1.7809 H         1 <0>         0.0716
     43 H10        -5.6570    1.6123    2.1038 H         1 <0>         0.0293
     44 H11        -7.1696    0.8996    1.5550 H         1 <0>         0.0293
     45 H12        -5.9342   -0.1455    2.2344 H         1 <0>         0.0293
     46 H13        -5.2177    1.9887   -2.6494 H         1 <0>         0.0907
     47 H14         4.8377    4.8602    0.1583 H         1 <0>         0.0687
     48 H15         6.3160    3.8812    0.2876 H         1 <0>         0.0687
     49 H16         5.1248    3.9043    1.6297 H         1 <0>         0.0687
     50 H17         3.6645   -4.3936   -0.6855 H         1 <0>         0.1442
     51 H18         4.8542   -5.0360    0.3862 H         1 <0>         0.1442
@<TRIPOS>BOND
     1    1   15 1
     2    1   19 1
     3    2   26 1
     4    2   32 1
     5    3   29 1
     6    3   31 1
     7    4   17 2
     8    5   21 1
     9    5   41 1
    10    6   21 2
    11    7   22 2
    12    8   11 1
    13    8   33 1
    14    9   15 1
    15    9   17 am
    16    9   18 1
    17   10   16 1
    18   10   22 am
    19   10   38 1
    20   11   24 2
    21   12   27 1
    22   12   31 2
    23   13   28 1
    24   13   32 2
    25   14   31 1
    26   14   50 1
    27   14   51 1
    28   15   16 1
    29   15   34 1
    30   16   17 1
    31   16   35 1
    32   18   20 2
    33   18   21 1
    34   19   20 1
    35   19   36 1
    36   19   37 1
    37   20   23 1
    38   22   24 1
    39   23   25 2
    40   23   39 1
    41   24   27 1
    42   25   26 1
    43   25   40 1
    44   26   28 2
    45   27   29 2
    46   28   30 1
    47   29   42 1
    48   30   43 1
    49   30   44 1
    50   30   45 1
    51   32   46 1
    52   33   47 1
    53   33   48 1
    54   33   49 1
