@<TRIPOS>MOLECULE
DB01203
   49    50     0     0     0
SMALL
USER_CHARGES

@<TRIPOS>ATOM
      1 O1         -1.1718    3.1471   -0.9398 O.3       1 <0>        -0.3889
      2 O2         -2.6725    2.4529    1.3628 O.3       1 <0>        -0.3889
      3 O3         -0.3195   -1.9025   -0.4985 O.3       1 <0>        -0.4891
      4 O4          1.8873   -3.5310   -1.1145 O.3       1 <0>        -0.3872
      5 N1          2.6558   -0.4208    0.7410 N.3       1 <0>        -0.3088
      6 C1         -2.0557    2.0308   -0.9367 C.3       1 <0>         0.0854
      7 C2         -3.1969    2.2989    0.0427 C.3       1 <0>         0.0853
      8 C3         -1.2842    0.7662   -0.5570 C.3       1 <0>         0.0046
      9 C4         -4.2006    1.1436    0.0233 C.3       1 <0>         0.0013
     10 C5         -2.1876   -0.4019   -0.2545 C.ar      1 <0>         0.0001
     11 C6         -3.5503   -0.2219    0.0499 C.ar      1 <0>        -0.0381
     12 C7         -1.6408   -1.6940   -0.2279 C.ar      1 <0>         0.1241
     13 C8          3.2875    0.8254    0.3294 C.3       1 <0>         0.0108
     14 C9         -4.3441   -1.3428    0.3395 C.ar      1 <0>        -0.0580
     15 C10         1.8954   -2.6686    0.0267 C.3       1 <0>         0.1015
     16 C11         2.5470   -1.3447   -0.3799 C.3       1 <0>         0.0256
     17 C12         0.4622   -2.5072    0.5283 C.3       1 <0>         0.1166
     18 C13        -2.4387   -2.7976    0.0711 C.ar      1 <0>        -0.0196
     19 C14        -3.7903   -2.6227    0.3521 C.ar      1 <0>        -0.0580
     20 C15         3.3842    1.7498    1.5476 C.3       1 <0>        -0.0473
     21 C16         4.6892    0.5093   -0.2033 C.3       1 <0>        -0.0473
     22 C17         2.4436    1.4856   -0.7674 C.3       1 <0>        -0.0473
     23 H1         -2.4584    1.9239   -1.9518 H         1 <0>         0.0622
     24 H2         -3.6988    3.2411   -0.2048 H         1 <0>         0.0622
     25 H3         -0.6586    0.9573    0.3239 H         1 <0>         0.0340
     26 H4         -0.6038    0.5212   -1.3821 H         1 <0>         0.0340
     27 H5         -4.8009    1.2056   -0.8928 H         1 <0>         0.0339
     28 H6         -4.8766    1.2324    0.8826 H         1 <0>         0.0339
     29 H7         -5.4026   -1.2221    0.5573 H         1 <0>         0.0620
     30 H8          2.4976   -3.1610    0.7988 H         1 <0>         0.0640
     31 H9          1.9673   -0.9401   -1.2153 H         1 <0>         0.0451
     32 H10         3.5272   -1.6162   -0.7856 H         1 <0>         0.0451
     33 H11         1.7299   -0.2238    1.1186 H         1 <0>         0.1225
     34 H12         0.4172   -1.9043    1.4420 H         1 <0>         0.0723
     35 H13         0.0697   -3.5055    0.7532 H         1 <0>         0.0723
     36 H14        -2.0323   -3.8050    0.0684 H         1 <0>         0.0654
     37 H15        -4.4153   -3.4822    0.5764 H         1 <0>         0.0619
     38 H16        -1.6863    3.9287   -1.2042 H         1 <0>         0.2099
     39 H17        -3.4203    2.6402    1.9553 H         1 <0>         0.2099
     40 H18         3.8636    2.7002    1.2863 H         1 <0>         0.0247
     41 H19         3.9745    1.2922    2.3502 H         1 <0>         0.0247
     42 H20         2.3925    1.9822    1.9536 H         1 <0>         0.0247
     43 H21         4.6878    0.0540   -1.1993 H         1 <0>         0.0247
     44 H22         5.2472   -0.1432    0.4791 H         1 <0>         0.0247
     45 H23         5.2720    1.4338   -0.3016 H         1 <0>         0.0247
     46 H24         2.8206    2.4969   -0.9675 H         1 <0>         0.0247
     47 H25         1.4020    1.6015   -0.4594 H         1 <0>         0.0247
     48 H26         2.4745    0.9664   -1.7299 H         1 <0>         0.0247
     49 H27         1.3110   -3.1280   -1.7864 H         1 <0>         0.2100
@<TRIPOS>BOND
     1    1    6 1
     2    1   38 1
     3    2    7 1
     4    2   39 1
     5    3   12 1
     6    3   17 1
     7    4   15 1
     8    4   49 1
     9    5   13 1
    10    5   16 1
    11    5   33 1
    12    6    7 1
    13    6    8 1
    14    6   23 1
    15    7    9 1
    16    7   24 1
    17    8   10 1
    18    8   25 1
    19    8   26 1
    20    9   11 1
    21    9   27 1
    22    9   28 1
    23   10   11 ar
    24   10   12 ar
    25   11   14 ar
    26   12   18 ar
    27   13   20 1
    28   13   21 1
    29   13   22 1
    30   14   19 ar
    31   14   29 1
    32   15   16 1
    33   15   17 1
    34   15   30 1
    35   16   31 1
    36   16   32 1
    37   17   34 1
    38   17   35 1
    39   18   19 ar
    40   18   36 1
    41   19   37 1
    42   20   40 1
    43   20   41 1
    44   20   42 1
    45   21   43 1
    46   21   44 1
    47   21   45 1
    48   22   46 1
    49   22   47 1
    50   22   48 1
