@<TRIPOS>MOLECULE
DB01074
   55    57     0     0     0
SMALL
USER_CHARGES

@<TRIPOS>ATOM
      1 N1         -2.6369    0.8188   -1.1789 N.3       1 <0>        -0.3132
      2 C1          0.2626    0.3173   -0.6817 C.3       1 <0>        -0.0340
      3 C2          1.7138    0.7677   -0.5288 C.3       1 <0>        -0.0379
      4 C3          0.1593   -1.1869   -0.4391 C.3       1 <0>        -0.0379
      5 C4         -0.6885    1.0647    0.2702 C.3       1 <0>        -0.0342
      6 C5          2.2460    0.4300    0.8751 C.3       1 <0>        -0.0499
      7 C6          1.8667    2.2611   -0.8275 C.3       1 <0>        -0.0499
      8 C7          0.4870   -1.5397    1.0138 C.3       1 <0>        -0.0499
      9 C8          1.0671   -1.9609   -1.4114 C.3       1 <0>        -0.0499
     10 C9         -2.1377    0.5892    0.1827 C.3       1 <0>         0.0079
     11 C10         3.4119    1.3176    1.3198 C.3       1 <0>        -0.0528
     12 C11         3.3324    2.7024   -0.7915 C.3       1 <0>        -0.0528
     13 C12         0.2729   -3.0288    1.2997 C.3       1 <0>        -0.0528
     14 C13         1.4848   -3.3407   -0.8951 C.3       1 <0>        -0.0528
     15 C14         4.2048    1.8576    0.1383 C.3       1 <0>        -0.0530
     16 C15         0.4657   -3.9229    0.0738 C.3       1 <0>        -0.0530
     17 C16        -3.0080    1.3228    1.2123 C.3       1 <0>        -0.0375
     18 C17        -4.4741    0.9182    1.0851 C.3       1 <0>        -0.0505
     19 C18        -4.0203    0.3671   -1.3301 C.3       1 <0>        -0.0039
     20 C19        -4.9516    1.0816   -0.3537 C.3       1 <0>        -0.0404
     21 H1         -0.0262    0.5235   -1.7201 H         1 <0>         0.0307
     22 H2          2.3578    0.2914   -1.2710 H         1 <0>         0.0304
     23 H3         -0.8573   -1.5325   -0.6578 H         1 <0>         0.0304
     24 H4         -0.6803    2.1308    0.0067 H         1 <0>         0.0283
     25 H5         -0.3692    1.0399    1.3147 H         1 <0>         0.0283
     26 H6          2.7810   -0.5197    0.7750 H         1 <0>         0.0268
     27 H7          1.5378    0.4723    1.7005 H         1 <0>         0.0268
     28 H8          1.3297    2.8567   -0.0798 H         1 <0>         0.0268
     29 H9          1.4349    2.5157   -1.8027 H         1 <0>         0.0268
     30 H10         1.5191   -1.5263    1.3061 H         1 <0>         0.0268
     31 H11        -0.1055   -0.9913    1.7500 H         1 <0>         0.0268
     32 H12         0.5012   -2.0977   -2.3436 H         1 <0>         0.0268
     33 H13         1.9831   -1.4644   -1.7235 H         1 <0>         0.0268
     34 H14        -2.2084   -0.4759    0.4266 H         1 <0>         0.0460
     35 H15         3.0183    2.1658    1.8951 H         1 <0>         0.0265
     36 H16         4.0704    0.7636    1.9995 H         1 <0>         0.0265
     37 H17         3.7564    2.6609   -1.8023 H         1 <0>         0.0265
     38 H18         3.3761    3.7553   -0.4869 H         1 <0>         0.0265
     39 H19         0.9424   -3.3556    2.1066 H         1 <0>         0.0265
     40 H20        -0.7450   -3.1841    1.6797 H         1 <0>         0.0265
     41 H21         1.6335   -4.0210   -1.7415 H         1 <0>         0.0265
     42 H22         2.4539   -3.2582   -0.3865 H         1 <0>         0.0265
     43 H23         4.6318    1.0178   -0.4241 H         1 <0>         0.0265
     44 H24         5.0516    2.4571    0.4913 H         1 <0>         0.0265
     45 H25        -0.4944   -4.0449   -0.4437 H         1 <0>         0.0265
     46 H26         0.7749   -4.9242    0.3943 H         1 <0>         0.0265
     47 H27        -2.6588    1.1016    2.2279 H         1 <0>         0.0280
     48 H28        -2.9214    2.4088    1.0757 H         1 <0>         0.0280
     49 H29        -2.0653    0.3120   -1.8524 H         1 <0>         0.1222
     50 H30        -4.5933   -0.1276    1.3941 H         1 <0>         0.0266
     51 H31        -5.0910    1.5247    1.7572 H         1 <0>         0.0266
     52 H32        -4.0800   -0.7187   -1.1867 H         1 <0>         0.0424
     53 H33        -4.3496    0.5728   -2.3544 H         1 <0>         0.0424
     54 H34        -4.9973    2.1493   -0.6037 H         1 <0>         0.0277
     55 H35        -5.9686    0.6862   -0.4535 H         1 <0>         0.0277
@<TRIPOS>BOND
     1    1   10 1
     2    1   19 1
     3    1   49 1
     4    2    3 1
     5    2    4 1
     6    2    5 1
     7    2   21 1
     8    3    6 1
     9    3    7 1
    10    3   22 1
    11    4    8 1
    12    4    9 1
    13    4   23 1
    14    5   10 1
    15    5   24 1
    16    5   25 1
    17    6   11 1
    18    6   26 1
    19    6   27 1
    20    7   12 1
    21    7   28 1
    22    7   29 1
    23    8   13 1
    24    8   30 1
    25    8   31 1
    26    9   14 1
    27    9   32 1
    28    9   33 1
    29   10   17 1
    30   10   34 1
    31   11   15 1
    32   11   35 1
    33   11   36 1
    34   12   15 1
    35   12   37 1
    36   12   38 1
    37   13   16 1
    38   13   39 1
    39   13   40 1
    40   14   16 1
    41   14   41 1
    42   14   42 1
    43   15   43 1
    44   15   44 1
    45   16   45 1
    46   16   46 1
    47   17   18 1
    48   17   47 1
    49   17   48 1
    50   18   20 1
    51   18   50 1
    52   18   51 1
    53   19   20 1
    54   19   52 1
    55   19   53 1
    56   20   54 1
    57   20   55 1
