@<TRIPOS>MOLECULE
DB01254
   59    62     0     0     0
SMALL
USER_CHARGES

@<TRIPOS>ATOM
      1 Cl1         7.5880   -0.3844   -3.0170 Cl        1 <0>        -0.0816
      2 S1          2.8140   -1.7022    0.0694 S.3       1 <0>        -0.0475
      3 O1        -10.5429   -1.2179    0.6427 O.3       1 <0>        -0.3937
      4 O2          5.7465   -2.3231   -0.0719 O.2       1 <0>        -0.2692
      5 N1         -7.0507   -0.6319   -0.3801 N.3       1 <0>        -0.2972
      6 N2         -4.3232    0.1926   -0.1783 N.pl3     1 <0>        -0.3126
      7 N3         -2.7892    2.0304   -0.2788 N.ar      1 <0>        -0.2175
      8 N4         -0.4173    1.6321   -0.1295 N.ar      1 <0>        -0.2174
      9 N5          0.3973   -0.5916    0.1181 N.pl3     1 <0>        -0.2785
     10 N6          2.2823    0.8242   -0.0617 N.2       1 <0>        -0.2322
     11 N7          6.4874   -0.1232   -0.2105 N.am      1 <0>        -0.2796
     12 C1         -5.9678   -1.5434   -0.7695 C.3       1 <0>         0.0148
     13 C2         -6.6122    0.2165    0.7351 C.3       1 <0>         0.0148
     14 C3         -4.7261   -0.7655   -1.2123 C.3       1 <0>         0.0263
     15 C4         -5.3928    1.0535    0.3417 C.3       1 <0>         0.0263
     16 C5         -8.2481   -1.3858   -0.0108 C.3       1 <0>         0.0222
     17 C6         -3.0146    0.6880   -0.1632 C.ar      1 <0>         0.1266
     18 C7         -9.3986   -0.4440    0.3067 C.3       1 <0>         0.0569
     19 C8         -1.9581   -0.2144   -0.0282 C.ar      1 <0>         0.0185
     20 C9         -0.6832    0.3140   -0.0180 C.ar      1 <0>         0.1296
     21 C10        -1.5009    2.4218   -0.2547 C.ar      1 <0>         0.1301
     22 C11        -1.2471    3.8858   -0.3805 C.3       1 <0>        -0.0045
     23 C12         1.7410   -0.3664    0.0388 C.2       1 <0>         0.1641
     24 C13         4.1302   -0.6109   -0.0643 C.2       1 <0>         0.0953
     25 C14         7.8920   -0.2915   -0.3033 C.ar      1 <0>         0.0551
     26 C15         3.6549    0.6825   -0.1203 C.2       1 <0>         0.0491
     27 C16         8.6390   -0.3235    0.8642 C.ar      1 <0>        -0.0278
     28 C17         5.4673   -1.0999   -0.1001 C.2       1 <0>         0.2565
     29 C18         8.4932   -0.4204   -1.5454 C.ar      1 <0>         0.0624
     30 C19        10.0219   -0.4884    0.7873 C.ar      1 <0>        -0.0570
     31 C20         8.0071   -0.1858    2.2118 C.3       1 <0>        -0.0379
     32 C21         9.8761   -0.5853   -1.6224 C.ar      1 <0>        -0.0416
     33 C22        10.6405   -0.6193   -0.4561 C.ar      1 <0>        -0.0600
     34 H1         -6.2913   -2.1750   -1.6059 H         1 <0>         0.0442
     35 H2         -5.7048   -2.2113    0.0620 H         1 <0>         0.0442
     36 H3         -6.3736   -0.3917    1.6179 H         1 <0>         0.0442
     37 H4         -7.3743    0.9426    1.0291 H         1 <0>         0.0442
     38 H5         -4.9320   -0.2238   -2.1445 H         1 <0>         0.0477
     39 H6         -3.9291   -1.4863   -1.4277 H         1 <0>         0.0477
     40 H7         -5.6701    1.7949   -0.4188 H         1 <0>         0.0477
     41 H8         -5.0489    1.5990    1.2297 H         1 <0>         0.0477
     42 H9         -8.0616   -2.0517    0.8426 H         1 <0>         0.0449
     43 H10        -8.5559   -2.0364   -0.8398 H         1 <0>         0.0449
     44 H11        -9.2192    0.2055    1.1655 H         1 <0>         0.0570
     45 H12        -9.6525    0.1804   -0.5560 H         1 <0>         0.0570
     46 H13        -2.1331   -1.2800    0.0773 H         1 <0>         0.0686
     47 H14       -10.3211   -1.7460    1.4286 H         1 <0>         0.2095
     48 H15         0.1004   -1.5574    0.2350 H         1 <0>         0.1555
     49 H16        -1.9203    4.4460    0.2755 H         1 <0>         0.0308
     50 H17        -1.4162    4.2035   -1.4136 H         1 <0>         0.0308
     51 H18        -0.2176    4.1343   -0.1043 H         1 <0>         0.0308
     52 H19         4.2521    1.5803   -0.2052 H         1 <0>         0.0843
     53 H20         6.2075    0.8521   -0.2707 H         1 <0>         0.1552
     54 H21        10.6328   -0.5180    1.6855 H         1 <0>         0.0621
     55 H22         8.7552   -0.1460    3.0110 H         1 <0>         0.0278
     56 H23         7.3534   -1.0401    2.4157 H         1 <0>         0.0278
     57 H24         7.4236    0.7391    2.2713 H         1 <0>         0.0278
     58 H25        10.3740   -0.6889   -2.5832 H         1 <0>         0.0633
     59 H26        11.7172   -0.7480   -0.5161 H         1 <0>         0.0618
@<TRIPOS>BOND
     1    1   29 1
     2    2   23 1
     3    2   24 1
     4    3   18 1
     5    3   47 1
     6    4   28 2
     7    5   12 1
     8    5   13 1
     9    5   16 1
    10    6   14 1
    11    6   15 1
    12    6   17 1
    13    7   17 ar
    14    7   21 ar
    15    8   20 ar
    16    8   21 ar
    17    9   20 1
    18    9   23 1
    19    9   48 1
    20   10   23 2
    21   10   26 1
    22   11   25 1
    23   11   28 am
    24   11   53 1
    25   12   14 1
    26   12   34 1
    27   12   35 1
    28   13   15 1
    29   13   36 1
    30   13   37 1
    31   14   38 1
    32   14   39 1
    33   15   40 1
    34   15   41 1
    35   16   18 1
    36   16   42 1
    37   16   43 1
    38   17   19 ar
    39   18   44 1
    40   18   45 1
    41   19   20 ar
    42   19   46 1
    43   21   22 1
    44   22   49 1
    45   22   50 1
    46   22   51 1
    47   24   26 2
    48   24   28 1
    49   25   27 ar
    50   25   29 ar
    51   26   52 1
    52   27   30 ar
    53   27   31 1
    54   29   32 ar
    55   30   33 ar
    56   30   54 1
    57   31   55 1
    58   31   56 1
    59   31   57 1
    60   32   33 ar
    61   32   58 1
    62   33   59 1
