@<TRIPOS>MOLECULE
DB01551
   45    49     0     0     0
SMALL
USER_CHARGES

@<TRIPOS>ATOM
      1 O1         -1.7075    1.2276   -1.5075 O.3       1 <0>        -0.4814
      2 O2         -1.6118    2.7325    0.7414 O.3       1 <0>        -0.3881
      3 O3         -4.0955   -0.2922   -0.7783 O.3       1 <0>        -0.4914
      4 N1          2.8145   -1.1086   -0.4375 N.3       1 <0>        -0.3018
      5 C1          0.5367    0.6637   -0.7975 C.3       1 <0>         0.0443
      6 C2          1.6779    0.9586    0.1776 C.3       1 <0>        -0.0117
      7 C3         -0.3926    1.8190   -1.2156 C.3       1 <0>         0.1360
      8 C4          2.1867   -0.4141    0.7138 C.3       1 <0>         0.0178
      9 C5          1.1298   -0.1074   -2.0006 C.3       1 <0>        -0.0266
     10 C6         -0.5064   -0.1791   -0.1597 C.ar      1 <0>         0.0113
     11 C7          1.3010    1.9732    1.2591 C.3       1 <0>        -0.0454
     12 C8         -0.5471    2.9661   -0.1825 C.3       1 <0>         0.0928
     13 C9          1.0653   -1.2302    1.4485 C.3       1 <0>        -0.0113
     14 C10         0.7336    3.2415    0.6095 C.3       1 <0>        -0.0230
     15 C11         1.9085   -1.3630   -1.5633 C.3       1 <0>        -0.0002
     16 C12        -0.3041   -1.1157    0.8338 C.ar      1 <0>        -0.0383
     17 C13        -1.7507    0.1305   -0.6742 C.ar      1 <0>         0.1665
     18 C14         3.5504   -2.3110   -0.0622 C.3       1 <0>        -0.0125
     19 C15        -1.4249   -1.8288    1.2581 C.ar      1 <0>        -0.0546
     20 C16        -2.8663   -0.5721   -0.2818 C.ar      1 <0>         0.1618
     21 C17        -2.6917   -1.5700    0.6887 C.ar      1 <0>        -0.0160
     22 C18        -5.1892   -1.0817   -0.3047 C.3       1 <0>         0.0790
     23 H1          2.4998    1.4305   -0.3841 H         1 <0>         0.0326
     24 H2         -0.0150    2.2612   -2.1468 H         1 <0>         0.0768
     25 H3          2.9831   -0.2139    1.4432 H         1 <0>         0.0469
     26 H4          1.8109    0.5585   -2.5477 H         1 <0>         0.0287
     27 H5          0.3510   -0.4060   -2.7143 H         1 <0>         0.0287
     28 H6          2.1960    2.2365    1.8358 H         1 <0>         0.0270
     29 H7          0.5858    1.5574    1.9757 H         1 <0>         0.0270
     30 H8         -0.8365    3.8744   -0.7232 H         1 <0>         0.0630
     31 H9          0.9915   -0.8401    2.4725 H         1 <0>         0.0329
     32 H10         1.3397   -2.2857    1.5420 H         1 <0>         0.0329
     33 H11         0.5287    3.9735    1.3998 H         1 <0>         0.0291
     34 H12         1.4884    3.6787   -0.0554 H         1 <0>         0.0291
     35 H13         1.2040   -2.1684   -1.3213 H         1 <0>         0.0427
     36 H14         2.4881   -1.7131   -2.4267 H         1 <0>         0.0427
     37 H15         2.8948   -3.1347    0.2374 H         1 <0>         0.0391
     38 H16         4.2457   -2.1037    0.7587 H         1 <0>         0.0391
     39 H17         4.1597   -2.6590   -0.9040 H         1 <0>         0.0391
     40 H18        -1.3345   -2.5787    2.0396 H         1 <0>         0.0622
     41 H19        -1.3842    1.9680    1.2945 H         1 <0>         0.2099
     42 H20        -3.5113   -2.1703    1.0725 H         1 <0>         0.0655
     43 H21        -5.3537   -0.9325    0.7677 H         1 <0>         0.0660
     44 H22        -5.0595   -2.1389   -0.5596 H         1 <0>         0.0660
     45 H23        -6.0888   -0.7324   -0.8215 H         1 <0>         0.0660
@<TRIPOS>BOND
     1    1    7 1
     2    1   17 1
     3    2   12 1
     4    2   41 1
     5    3   20 1
     6    3   22 1
     7    4    8 1
     8    4   15 1
     9    4   18 1
    10    5    6 1
    11    5    7 1
    12    5    9 1
    13    5   10 1
    14    6    8 1
    15    6   11 1
    16    6   23 1
    17    7   12 1
    18    7   24 1
    19    8   13 1
    20    8   25 1
    21    9   15 1
    22    9   26 1
    23    9   27 1
    24   10   16 ar
    25   10   17 ar
    26   11   14 1
    27   11   28 1
    28   11   29 1
    29   12   14 1
    30   12   30 1
    31   13   16 1
    32   13   31 1
    33   13   32 1
    34   14   33 1
    35   14   34 1
    36   15   35 1
    37   15   36 1
    38   16   19 ar
    39   17   20 ar
    40   18   37 1
    41   18   38 1
    42   18   39 1
    43   19   21 ar
    44   19   40 1
    45   20   21 ar
    46   21   42 1
    47   22   43 1
    48   22   44 1
    49   22   45 1
