@<TRIPOS>MOLECULE
DB01744
   27    28     0     0     0
SMALL
USER_CHARGES

@<TRIPOS>ATOM
      1 O1          0.9694   -1.4005    2.3597 O.2       1 <0>        -0.2968
      2 C1         -0.5244    0.5766   -0.1058 C.3       1 <0>        -0.0196
      3 C2         -0.0579   -0.8758    0.1886 C.3       1 <0>         0.0316
      4 C3          0.9325    1.1179   -0.0970 C.3       1 <0>        -0.0283
      5 C4          0.9801   -1.1638   -0.9203 C.3       1 <0>        -0.0401
      6 C5          1.6463    0.2138   -1.1343 C.3       1 <0>        -0.0484
      7 C6          1.4747    0.7279    1.3004 C.3       1 <0>         0.0097
      8 C7          0.8109   -0.6290    1.4265 C.2       1 <0>         0.1400
      9 C8         -1.2498    0.7662   -1.4522 C.3       1 <0>        -0.0587
     10 C9         -1.4375    1.1907    0.9751 C.3       1 <0>        -0.0587
     11 C10        -1.1179   -1.9363    0.3640 C.3       1 <0>        -0.0523
     12 H1          1.0391    2.1838   -0.3129 H         1 <0>         0.0310
     13 H2          0.5126   -1.5175   -1.8454 H         1 <0>         0.0275
     14 H3          1.7208   -1.9114   -0.6133 H         1 <0>         0.0275
     15 H4          2.7290    0.1688   -0.9753 H         1 <0>         0.0268
     16 H5          1.4807    0.5702   -2.1564 H         1 <0>         0.0268
     17 H6          1.1223    1.4000    2.0858 H         1 <0>         0.0345
     18 H7          2.5632    0.6386    1.3229 H         1 <0>         0.0345
     19 H8         -0.7315    0.3296   -2.3088 H         1 <0>         0.0235
     20 H9         -1.3800    1.8331   -1.6669 H         1 <0>         0.0235
     21 H10        -2.2452    0.3084   -1.4240 H         1 <0>         0.0235
     22 H11        -1.5188    2.2745    0.8351 H         1 <0>         0.0235
     23 H12        -1.0945    1.0188    1.9989 H         1 <0>         0.0235
     24 H13        -2.4478    0.7699    0.9146 H         1 <0>         0.0235
     25 H14        -1.7347   -2.0364   -0.5345 H         1 <0>         0.0239
     26 H15        -0.6637   -2.9121    0.5686 H         1 <0>         0.0239
     27 H16        -1.7779   -1.7059    1.2068 H         1 <0>         0.0239
@<TRIPOS>BOND
     1    1    8 2
     2    2    3 1
     3    2    4 1
     4    2    9 1
     5    2   10 1
     6    3    5 1
     7    3    8 1
     8    3   11 1
     9    4    6 1
    10    4    7 1
    11    4   12 1
    12    5    6 1
    13    5   13 1
    14    5   14 1
    15    6   15 1
    16    6   16 1
    17    7    8 1
    18    7   17 1
    19    7   18 1
    20    9   19 1
    21    9   20 1
    22    9   21 1
    23   10   22 1
    24   10   23 1
    25   10   24 1
    26   11   25 1
    27   11   26 1
    28   11   27 1
