@<TRIPOS>MOLECULE
DB01419
   68    72     0     0     0
SMALL
USER_CHARGES

@<TRIPOS>ATOM
      1 F1         -6.4874   -1.1573   -2.5991 F         1 <0>        -0.1659
      2 F2         -4.9582   -0.2655   -3.8525 F         1 <0>        -0.1659
      3 F3         -4.4686   -1.9652   -2.5876 F         1 <0>        -0.1659
      4 F4         -2.8750   -2.8560    4.2557 F         1 <0>        -0.1659
      5 F5         -4.1907   -2.1959    2.6630 F         1 <0>        -0.1659
      6 F6         -3.4958   -4.2558    2.7119 F         1 <0>        -0.1659
      7 O1          3.5923    1.5916    0.3487 O.3       1 <0>        -0.4598
      8 O2          5.0865    1.0944    2.0278 O.2       1 <0>        -0.2449
      9 N1          0.9567    2.5702    0.0106 N.3       1 <0>        -0.2962
     10 N2         -1.8076    1.8905   -0.2260 N.pl3     1 <0>        -0.3274
     11 N3          2.6163   -1.1758    0.2451 N.pl3     1 <0>        -0.3133
     12 N4         -1.0040   -2.4171   -1.4574 N.ar      1 <0>        -0.2548
     13 C1          0.0948    2.5422    1.1988 C.3       1 <0>         0.0148
     14 C2          0.1818    3.0049   -1.1579 C.3       1 <0>         0.0148
     15 C3         -1.0745    1.5739    1.0062 C.3       1 <0>         0.0250
     16 C4         -0.9857    2.0528   -1.4292 C.3       1 <0>         0.0250
     17 C5          2.0996    3.4567    0.2268 C.3       1 <0>         0.0333
     18 C6         -3.1258    1.4356   -0.3421 C.ar      1 <0>         0.0303
     19 C7          3.1735    2.7578    1.0454 C.3       1 <0>         0.1054
     20 C8         -3.4786    0.5772   -1.3836 C.ar      1 <0>        -0.0290
     21 C9         -4.0871    1.8400    0.5842 C.ar      1 <0>        -0.0406
     22 C10        -4.7927    0.1232   -1.4984 C.ar      1 <0>         0.0566
     23 C11        -5.4011    1.3862    0.4693 C.ar      1 <0>        -0.0595
     24 C12        -5.7539    0.5278   -0.5719 C.ar      1 <0>        -0.0500
     25 C13        -5.1703   -0.7947   -2.6113 C.3       1 <0>         0.4175
     26 C14         4.5587    0.8476    0.9545 C.2       1 <0>         0.3410
     27 C15         4.9069   -0.3361    0.1287 C.ar      1 <0>         0.0801
     28 C16         3.9517   -1.2979   -0.1999 C.ar      1 <0>         0.0454
     29 C17         1.3894   -1.5959   -0.3002 C.ar      1 <0>         0.0421
     30 C18         0.2969   -1.9292    0.5116 C.ar      1 <0>         0.0215
     31 C19         6.2201   -0.4756   -0.3204 C.ar      1 <0>        -0.0460
     32 C20        -0.8969   -2.3405   -0.1173 C.ar      1 <0>         0.0733
     33 C21         4.3097   -2.3993   -0.9777 C.ar      1 <0>        -0.0397
     34 C22         0.3733   -1.8605    1.9130 C.ar      1 <0>        -0.0503
     35 C23         1.2822   -1.6741   -1.6813 C.ar      1 <0>        -0.0218
     36 C24         6.5781   -1.5770   -1.0980 C.ar      1 <0>        -0.0609
     37 C25        -1.9820   -2.6713    0.6896 C.ar      1 <0>        -0.0241
     38 C26        -1.9063   -2.6031    2.0829 C.ar      1 <0>         0.0568
     39 C27         5.6229   -2.5388   -1.4266 C.ar      1 <0>        -0.0600
     40 C28        -0.7273   -2.1973    2.6958 C.ar      1 <0>        -0.0494
     41 C29         0.0740   -2.0868   -2.2050 C.ar      1 <0>         0.0300
     42 C30        -3.0916   -2.9676    2.9116 C.3       1 <0>         0.4175
     43 H1          0.6518    2.2094    2.0811 H         1 <0>         0.0442
     44 H2         -0.2964    3.5446    1.4193 H         1 <0>         0.0442
     45 H3         -0.1998    4.0244   -1.0112 H         1 <0>         0.0442
     46 H4          0.8188    3.0192   -2.0508 H         1 <0>         0.0442
     47 H5         -0.7056    0.5506    0.9455 H         1 <0>         0.0476
     48 H6         -1.7183    1.6346    1.8910 H         1 <0>         0.0476
     49 H7         -0.5972    1.0786   -1.7507 H         1 <0>         0.0476
     50 H8         -1.5796    2.4702   -2.2518 H         1 <0>         0.0476
     51 H9          2.5532    3.7053   -0.7419 H         1 <0>         0.0460
     52 H10         1.8058    4.4040    0.6953 H         1 <0>         0.0460
     53 H11         2.8174    2.4909    2.0461 H         1 <0>         0.0710
     54 H12         4.0304    3.4332    1.1567 H         1 <0>         0.0710
     55 H13        -2.7460    0.2358   -2.1102 H         1 <0>         0.0641
     56 H14        -3.8355    2.5193    1.3946 H         1 <0>         0.0636
     57 H15        -6.1501    1.7035    1.1889 H         1 <0>         0.0618
     58 H16        -6.7824    0.1855   -0.6449 H         1 <0>         0.0623
     59 H17         2.5192   -0.6067    1.0796 H         1 <0>         0.1522
     60 H18         6.9738    0.2674   -0.0722 H         1 <0>         0.0626
     61 H19         3.5963   -3.1795   -1.2280 H         1 <0>         0.0636
     62 H20         1.2790   -1.5561    2.4302 H         1 <0>         0.0625
     63 H21         2.0871   -1.4001   -2.3538 H         1 <0>         0.0651
     64 H22        -2.9137   -2.9895    0.2236 H         1 <0>         0.0644
     65 H23         7.6009   -1.6864   -1.4465 H         1 <0>         0.0618
     66 H24         5.9035   -3.3994   -2.0268 H         1 <0>         0.0618
     67 H25        -0.6451   -2.1383    3.7772 H         1 <0>         0.0623
     68 H26        -0.0718   -2.1591   -3.2779 H         1 <0>         0.0830
@<TRIPOS>BOND
     1    1   25 1
     2    2   25 1
     3    3   25 1
     4    4   42 1
     5    5   42 1
     6    6   42 1
     7    7   19 1
     8    7   26 1
     9    8   26 2
    10    9   13 1
    11    9   14 1
    12    9   17 1
    13   10   15 1
    14   10   16 1
    15   10   18 1
    16   11   28 1
    17   11   29 1
    18   11   59 1
    19   12   32 ar
    20   12   41 ar
    21   13   15 1
    22   13   43 1
    23   13   44 1
    24   14   16 1
    25   14   45 1
    26   14   46 1
    27   15   47 1
    28   15   48 1
    29   16   49 1
    30   16   50 1
    31   17   19 1
    32   17   51 1
    33   17   52 1
    34   18   20 ar
    35   18   21 ar
    36   19   53 1
    37   19   54 1
    38   20   22 ar
    39   20   55 1
    40   21   23 ar
    41   21   56 1
    42   22   24 ar
    43   22   25 1
    44   23   24 ar
    45   23   57 1
    46   24   58 1
    47   26   27 1
    48   27   28 ar
    49   27   31 ar
    50   28   33 ar
    51   29   30 ar
    52   29   35 ar
    53   30   32 ar
    54   30   34 ar
    55   31   36 ar
    56   31   60 1
    57   32   37 ar
    58   33   39 ar
    59   33   61 1
    60   34   40 ar
    61   34   62 1
    62   35   41 ar
    63   35   63 1
    64   36   39 ar
    65   36   65 1
    66   37   38 ar
    67   37   64 1
    68   38   40 ar
    69   38   42 1
    70   39   66 1
    71   40   67 1
    72   41   68 1
