@<TRIPOS>MOLECULE
DB01002
   49    50     0     0     0
SMALL
USER_CHARGES

@<TRIPOS>ATOM
      1 O1          0.5482    0.0007   -1.4945 O.2       1 <0>        -0.2737
      2 N1         -1.6653   -0.8234   -0.2061 N.3       1 <0>        -0.2915
      3 N2          1.8146   -0.2636    0.4711 N.am      1 <0>        -0.2837
      4 C1         -0.3518   -1.2439    0.3158 C.3       1 <0>         0.0875
      5 C2         -0.0556   -2.7178    0.0061 C.3       1 <0>        -0.0288
      6 C3         -2.7416   -1.6853    0.3150 C.3       1 <0>        -0.0004
      7 C4         -1.1638   -3.6317    0.5096 C.3       1 <0>        -0.0500
      8 C5         -2.5097   -3.1578   -0.0196 C.3       1 <0>        -0.0401
      9 C6         -1.9688    0.5734    0.1305 C.3       1 <0>        -0.0004
     10 C7          0.7108   -0.4273   -0.3564 C.2       1 <0>         0.2345
     11 C8         -3.3154    0.9820   -0.4641 C.3       1 <0>        -0.0404
     12 C9         -3.6613    2.4280   -0.1069 C.3       1 <0>        -0.0548
     13 C10         3.0073    0.4424    0.1860 C.ar      1 <0>         0.0393
     14 C11        -4.9836    2.8538   -0.7246 C.3       1 <0>        -0.0652
     15 C12         4.0700   -0.2253   -0.4046 C.ar      1 <0>        -0.0290
     16 C13         3.0937    1.7902    0.5019 C.ar      1 <0>        -0.0290
     17 C14         5.2456    0.4707   -0.6857 C.ar      1 <0>        -0.0571
     18 C15         4.2695    2.4860    0.2208 C.ar      1 <0>        -0.0571
     19 C16         3.9938   -1.6770   -0.7514 C.3       1 <0>        -0.0379
     20 C17         1.9582    2.5249    1.1378 C.3       1 <0>        -0.0379
     21 C18         5.3455    1.8263   -0.3731 C.ar      1 <0>        -0.0611
     22 H1         -0.3211   -1.0889    1.4032 H         1 <0>         0.0559
     23 H2          0.8958   -3.0179    0.4626 H         1 <0>         0.0285
     24 H3          0.0662   -2.8617   -1.0764 H         1 <0>         0.0285
     25 H4         -3.7059   -1.4670   -0.1491 H         1 <0>         0.0427
     26 H5         -2.8523   -1.5667    1.4009 H         1 <0>         0.0427
     27 H6         -1.1752   -3.6283    1.6063 H         1 <0>         0.0266
     28 H7         -0.9755   -4.6628    0.1912 H         1 <0>         0.0266
     29 H8         -2.5492   -3.3021   -1.1068 H         1 <0>         0.0278
     30 H9         -3.3110   -3.7677    0.4136 H         1 <0>         0.0278
     31 H10        -1.2110    1.2568   -0.2666 H         1 <0>         0.0427
     32 H11        -1.9845    0.7159    1.2194 H         1 <0>         0.0427
     33 H12        -4.1466    0.3893   -0.0740 H         1 <0>         0.0277
     34 H13        -3.2986    0.8605   -1.5542 H         1 <0>         0.0277
     35 H14        -2.8697    3.0984   -0.4617 H         1 <0>         0.0263
     36 H15        -3.7183    2.5413    0.9820 H         1 <0>         0.0263
     37 H16         1.8442   -0.7945    1.3387 H         1 <0>         0.1549
     38 H17        -5.2081    3.8920   -0.4603 H         1 <0>         0.0230
     39 H18        -4.9482    2.7816   -1.8163 H         1 <0>         0.0230
     40 H19        -5.8058    2.2270   -0.3648 H         1 <0>         0.0230
     41 H20         6.0934   -0.0273   -1.1487 H         1 <0>         0.0621
     42 H21         4.3640    3.5427    0.4566 H         1 <0>         0.0621
     43 H22         3.2381   -1.8454   -1.5255 H         1 <0>         0.0278
     44 H23         4.9475   -2.0553   -1.1349 H         1 <0>         0.0278
     45 H24         3.7438   -2.2720    0.1335 H         1 <0>         0.0278
     46 H25         1.1117    2.5898    0.4464 H         1 <0>         0.0278
     47 H26         1.6375    2.0210    2.0557 H         1 <0>         0.0278
     48 H27         2.2379    3.5475    1.4139 H         1 <0>         0.0278
     49 H28         6.2607    2.3684   -0.5923 H         1 <0>         0.0618
@<TRIPOS>BOND
     1    1   10 2
     2    2    4 1
     3    2    6 1
     4    2    9 1
     5    3   10 am
     6    3   13 1
     7    3   37 1
     8    4    5 1
     9    4   10 1
    10    4   22 1
    11    5    7 1
    12    5   23 1
    13    5   24 1
    14    6    8 1
    15    6   25 1
    16    6   26 1
    17    7    8 1
    18    7   27 1
    19    7   28 1
    20    8   29 1
    21    8   30 1
    22    9   11 1
    23    9   31 1
    24    9   32 1
    25   11   12 1
    26   11   33 1
    27   11   34 1
    28   12   14 1
    29   12   35 1
    30   12   36 1
    31   13   15 ar
    32   13   16 ar
    33   14   38 1
    34   14   39 1
    35   14   40 1
    36   15   17 ar
    37   15   19 1
    38   16   18 ar
    39   16   20 1
    40   17   21 ar
    41   17   41 1
    42   18   21 ar
    43   18   42 1
    44   19   43 1
    45   19   44 1
    46   19   45 1
    47   20   46 1
    48   20   47 1
    49   20   48 1
    50   21   49 1
