@<TRIPOS>MOLECULE
DB01020
   22    23     0     0     0
SMALL
USER_CHARGES

@<TRIPOS>ATOM
      1 O1         -0.5009   -1.8713    0.1684 O.3       1 <0>        -0.3672
      2 O2         -0.2039    1.0305   -0.7522 O.3       1 <0>        -0.3673
      3 O3          2.3988    0.0716   -0.6373 O.3       1 <0>        -0.2081
      4 O4         -2.6389    0.9456    1.0567 O.3       1 <0>        -0.3869
      5 O5          3.0877    1.1869    1.1584 O.3       1 <0>        -0.5338
      6 O6          3.4192    2.0907   -0.8528 O.2       1 <0>         0.0934
      7 N1          3.0254    1.2220   -0.0712 N.pl3     1 <0>         0.2847
      8 C1          0.2313    0.3699    0.4484 C.3       1 <0>         0.1331
      9 C2         -0.8476   -0.6307    0.8134 C.3       1 <0>         0.1166
     10 C3          1.4256   -0.5183    0.1949 C.3       1 <0>         0.2283
     11 C4         -2.0917   -0.0448    0.1948 C.3       1 <0>         0.1071
     12 C5          0.7892   -1.7318   -0.4449 C.3       1 <0>         0.0947
     13 C6         -1.5540    0.6359   -1.0481 C.3       1 <0>         0.0767
     14 H1          0.3891    1.1373    1.2116 H         1 <0>         0.0663
     15 H2         -0.9173   -0.8052    1.8916 H         1 <0>         0.0650
     16 H3          1.8643   -0.8502    1.1463 H         1 <0>         0.0858
     17 H4         -2.8653   -0.7826   -0.0370 H         1 <0>         0.0643
     18 H5          0.6556   -1.6105   -1.5258 H         1 <0>         0.0600
     19 H6          1.3732   -2.6429   -0.2827 H         1 <0>         0.0600
     20 H7         -1.5105   -0.0585   -1.8936 H         1 <0>         0.0586
     21 H8         -2.1216    1.5230   -1.3436 H         1 <0>         0.0586
     22 H9         -3.4077    1.3336    0.6048 H         1 <0>         0.2100
@<TRIPOS>BOND
     1    1    9 1
     2    1   12 1
     3    2    8 1
     4    2   13 1
     5    3    7 1
     6    3   10 1
     7    4   11 1
     8    4   22 1
     9    5    7 1
    10    6    7 2
    11    8    9 1
    12    8   10 1
    13    8   14 1
    14    9   11 1
    15    9   15 1
    16   10   12 1
    17   10   16 1
    18   11   13 1
    19   11   17 1
    20   12   18 1
    21   12   19 1
    22   13   20 1
    23   13   21 1
