@<TRIPOS>MOLECULE
DB01009
   33    34     0     0     0
SMALL
USER_CHARGES

@<TRIPOS>ATOM
      1 O1          3.8647   -2.6408   -0.5328 O.3       1 <0>        -0.4802
      2 O2         -1.5656    1.4426    2.2472 O.2       1 <0>        -0.2867
      3 O3          1.7441   -2.0689   -1.0914 O.2       1 <0>        -0.2503
      4 C1          3.1736   -0.3743   -0.0658 C.3       1 <0>         0.0784
      5 C2          2.0402    0.5885   -0.1789 C.ar      1 <0>        -0.0333
      6 C3          0.8458    0.3434    0.4989 C.ar      1 <0>        -0.0470
      7 C4         -0.1799    1.2509    0.3726 C.ar      1 <0>         0.0225
      8 C5          2.1743    1.7339   -0.9636 C.ar      1 <0>        -0.0578
      9 C6          3.7054   -0.5485    1.3715 C.3       1 <0>        -0.0482
     10 C7         -0.0798    2.3894   -0.3928 C.ar      1 <0>        -0.0509
     11 C8          1.1143    2.6343   -1.0704 C.ar      1 <0>        -0.0608
     12 C9         -1.4598    0.9886    1.0980 C.2       1 <0>         0.1931
     13 C10         2.8317   -1.7616   -0.6209 C.2       1 <0>         0.3119
     14 C11        -2.5525    0.2355    0.5038 C.ar      1 <0>         0.0223
     15 C12        -2.4270   -0.2730   -0.7892 C.ar      1 <0>        -0.0509
     16 C13        -3.7260    0.0208    1.2267 C.ar      1 <0>        -0.0509
     17 C14        -3.4751   -0.9958   -1.3592 C.ar      1 <0>        -0.0611
     18 C15        -4.7739   -0.7022    0.6566 C.ar      1 <0>        -0.0611
     19 C16        -4.6483   -1.2104   -0.6364 C.ar      1 <0>        -0.0617
     20 H1          4.0063   -0.0116   -0.6840 H         1 <0>         0.0459
     21 H2          0.7259   -0.5433    1.1150 H         1 <0>         0.0628
     22 H3          3.0975    1.9404   -1.4984 H         1 <0>         0.0621
     23 H4          3.9249    0.4251    1.8235 H         1 <0>         0.0241
     24 H5          2.9796   -1.0626    2.0113 H         1 <0>         0.0241
     25 H6          4.6292   -1.1368    1.3850 H         1 <0>         0.0241
     26 H7         -0.9024    3.0926   -0.4783 H         1 <0>         0.0625
     27 H8          1.2188    3.5262   -1.6814 H         1 <0>         0.0618
     28 H9         -1.5317   -0.1304   -1.3867 H         1 <0>         0.0625
     29 H10        -3.8492    0.4059    2.2355 H         1 <0>         0.0625
     30 H11        -3.3778   -1.3920   -2.3658 H         1 <0>         0.0618
     31 H12        -5.6879   -0.8696    1.2192 H         1 <0>         0.0618
     32 H13        -5.4642   -1.7733   -1.0801 H         1 <0>         0.0618
     33 H14         3.6246   -3.5230   -0.8883 H         1 <0>         0.2951
@<TRIPOS>BOND
     1    1   13 1
     2    1   33 1
     3    2   12 2
     4    3   13 2
     5    4    5 1
     6    4    9 1
     7    4   13 1
     8    4   20 1
     9    5    6 ar
    10    5    8 ar
    11    6    7 ar
    12    6   21 1
    13    7   10 ar
    14    7   12 1
    15    8   11 ar
    16    8   22 1
    17    9   23 1
    18    9   24 1
    19    9   25 1
    20   10   11 ar
    21   10   26 1
    22   11   27 1
    23   12   14 1
    24   14   15 ar
    25   14   16 ar
    26   15   17 ar
    27   15   28 1
    28   16   18 ar
    29   16   29 1
    30   17   19 ar
    31   17   30 1
    32   18   19 ar
    33   18   31 1
    34   19   32 1
