@<TRIPOS>MOLECULE
DB01587
   43    46     0     0     0
SMALL
USER_CHARGES

@<TRIPOS>ATOM
      1 Cl1        -2.1092    4.6691    1.5689 Cl        1 <0>        -0.0835
      2 O1          1.5496    1.4720    0.0012 O.3       1 <0>        -0.4642
      3 O2          2.0671   -0.5145   -3.4746 O.2       1 <0>        -0.2704
      4 O3         -1.3576   -2.3297   -2.3568 O.2       1 <0>        -0.2735
      5 N1          0.6235    0.1503   -1.7572 N.am      1 <0>        -0.2434
      6 N2         -2.1677   -0.8143   -0.7851 N.am      1 <0>        -0.2727
      7 C1          0.5064    0.5122   -0.3171 C.3       1 <0>         0.2350
      8 C2         -0.8680    1.1824   -0.0275 C.ar      1 <0>         0.0421
      9 C3          0.7250   -0.6714    0.6644 C.ar      1 <0>         0.0195
     10 C4         -0.5810   -0.0935   -2.5388 C.3       1 <0>         0.0960
     11 C5         -2.0955    0.4809   -0.1714 C.ar      1 <0>         0.0450
     12 C6          1.8674   -0.0435   -2.3572 C.2       1 <0>         0.2464
     13 C7         -1.3919   -1.1893   -1.8871 C.2       1 <0>         0.2371
     14 C8         -0.9103    2.4925    0.5012 C.ar      1 <0>        -0.0326
     15 C9          2.8065    1.1756   -0.4765 C.2       1 <0>         0.1032
     16 C10         3.0210    0.4132   -1.5543 C.2       1 <0>         0.0378
     17 C11        -3.2855    1.0751    0.2946 C.ar      1 <0>        -0.0384
     18 C12         0.7452   -0.4312    2.0313 C.ar      1 <0>        -0.0528
     19 C13         0.8978   -1.9535    0.1616 C.ar      1 <0>        -0.0528
     20 C14        -3.1555   -1.7630   -0.2748 C.3       1 <0>         0.0083
     21 C15        -2.1064    3.0749    0.9201 C.ar      1 <0>         0.0415
     22 C16        -3.2908    2.3609    0.8309 C.ar      1 <0>        -0.0416
     23 C17         3.9155    1.7792    0.3226 C.3       1 <0>        -0.0067
     24 C18         0.9419   -1.4942    2.9128 C.ar      1 <0>        -0.0613
     25 C19         1.0946   -3.0165    1.0431 C.ar      1 <0>        -0.0613
     26 C20         1.1166   -2.7868    2.4188 C.ar      1 <0>        -0.0617
     27 H1         -0.3284   -0.4114   -3.5563 H         1 <0>         0.0562
     28 H2         -1.1532    0.8341   -2.6416 H         1 <0>         0.0562
     29 H3          0.0035    3.0706    0.6184 H         1 <0>         0.0637
     30 H4          4.0167    0.1938   -1.9217 H         1 <0>         0.0703
     31 H5         -4.2415    0.5647    0.2079 H         1 <0>         0.0637
     32 H6          0.6166    0.5688    2.4349 H         1 <0>         0.0622
     33 H7          0.9140   -2.1835   -0.8964 H         1 <0>         0.0622
     34 H8         -4.1244   -1.5532   -0.7380 H         1 <0>         0.0433
     35 H9         -3.2247   -1.6915    0.8153 H         1 <0>         0.0433
     36 H10        -2.8736   -2.7890   -0.5300 H         1 <0>         0.0433
     37 H11        -4.2314    2.7941    1.1610 H         1 <0>         0.0633
     38 H12         4.9011    1.5239   -0.0800 H         1 <0>         0.0308
     39 H13         3.8266    2.8702    0.3287 H         1 <0>         0.0308
     40 H14         3.8723    1.4235    1.3572 H         1 <0>         0.0308
     41 H15         0.9607   -1.3151    3.9839 H         1 <0>         0.0618
     42 H16         1.2360   -4.0224    0.6587 H         1 <0>         0.0618
     43 H17         1.2713   -3.6143    3.1050 H         1 <0>         0.0618
@<TRIPOS>BOND
     1    1   21 1
     2    2    7 1
     3    2   15 1
     4    3   12 2
     5    4   13 2
     6    5    7 1
     7    5   10 1
     8    5   12 am
     9    6   11 1
    10    6   13 am
    11    6   20 1
    12    7    8 1
    13    7    9 1
    14    8   11 ar
    15    8   14 ar
    16    9   18 ar
    17    9   19 ar
    18   10   13 1
    19   10   27 1
    20   10   28 1
    21   11   17 ar
    22   12   16 1
    23   14   21 ar
    24   14   29 1
    25   15   16 2
    26   15   23 1
    27   16   30 1
    28   17   22 ar
    29   17   31 1
    30   18   24 ar
    31   18   32 1
    32   19   25 ar
    33   19   33 1
    34   20   34 1
    35   20   35 1
    36   20   36 1
    37   21   22 ar
    38   22   37 1
    39   23   38 1
    40   23   39 1
    41   23   40 1
    42   24   26 ar
    43   24   41 1
    44   25   26 ar
    45   25   42 1
    46   26   43 1
