@<TRIPOS>MOLECULE
DB01200
   83    89     0     0     0
SMALL
USER_CHARGES

@<TRIPOS>ATOM
      1 Br1        -9.4720   -1.1534   -1.6647 Br        1 <0>        -0.0305
      2 O1          2.0491    1.0549    1.0144 O.3       1 <0>        -0.2983
      3 O2          2.3139    1.4508   -1.2882 O.3       1 <0>        -0.3481
      4 O3          2.9623   -2.3178    0.6019 O.2       1 <0>        -0.2704
      5 O4          6.5753    0.6807   -2.0197 O.2       1 <0>        -0.2735
      6 O5         -0.9325    0.7299    1.8087 O.2       1 <0>        -0.2750
      7 N1          3.5345   -0.1849   -0.1861 N.am      1 <0>        -0.2334
      8 N2          5.2036    1.9531   -0.6825 N.am      1 <0>        -0.2900
      9 N3          0.4701   -0.6195    0.5317 N.am      1 <0>        -0.2793
     10 N4         -3.7829   -2.0688   -0.0804 N.3       1 <0>        -0.2971
     11 N5         -8.5140    1.5065   -0.9917 N.pl3     1 <0>        -0.3488
     12 C1          4.1162    2.0777    0.2768 C.3       1 <0>         0.0987
     13 C2          2.9779    1.1357   -0.0722 C.3       1 <0>         0.2691
     14 C3          4.7149   -0.4615   -0.9990 C.3       1 <0>         0.1076
     15 C4          3.8308    3.5787    0.3130 C.3       1 <0>        -0.0261
     16 C5          1.7008   -0.3222    1.2111 C.3       1 <0>         0.2201
     17 C6          5.8550    3.2334   -0.9130 C.3       1 <0>         0.0154
     18 C7          5.2250    4.1718    0.1098 C.3       1 <0>        -0.0352
     19 C8          2.8057   -1.1081    0.5417 C.2       1 <0>         0.2712
     20 C9          5.5890    0.7721   -1.2847 C.2       1 <0>         0.2367
     21 C10         4.3136   -1.1204   -2.3184 C.3       1 <0>        -0.0232
     22 C11         1.6064   -0.6131    2.6972 C.3       1 <0>         0.0085
     23 C12         3.5009   -2.4107   -2.1325 C.3       1 <0>        -0.0446
     24 C13         2.9009   -0.2220    3.4134 C.3       1 <0>        -0.0580
     25 C14         1.2892   -2.0894    2.9453 C.3       1 <0>        -0.0580
     26 C15        -0.7463   -0.0649    0.8909 C.2       1 <0>         0.2235
     27 C16        -1.8633   -0.5238    0.0035 C.3       1 <0>         0.0670
     28 C17        -4.7707   -0.9728    0.1294 C.3       1 <0>         0.0397
     29 C18        -2.5156   -1.7719    0.6031 C.3       1 <0>         0.0138
     30 C19         4.2460   -3.4570   -1.3027 C.3       1 <0>        -0.0626
     31 C20         2.1608   -2.0831   -1.4697 C.3       1 <0>        -0.0626
     32 C21        -4.1494    0.4473   -0.0322 C.2       1 <0>        -0.0253
     33 C22        -2.8193    0.6220   -0.1233 C.2       1 <0>        -0.0658
     34 C23        -6.0168   -1.2095   -0.8026 C.3       1 <0>        -0.0048
     35 C24        -5.0776    1.5980   -0.1062 C.2       1 <0>        -0.0112
     36 C25        -6.9021   -0.0148   -0.8227 C.2       1 <0>        -0.0056
     37 C26        -6.3782    1.2514   -0.4899 C.2       1 <0>         0.0114
     38 C27        -4.2884   -3.3670    0.3776 C.3       1 <0>        -0.0121
     39 C28        -7.3859    2.1952   -0.6015 C.2       1 <0>         0.0481
     40 C29        -8.2301    0.1649   -1.1307 C.2       1 <0>         0.0872
     41 C30        -4.8285    2.9493    0.1633 C.2       1 <0>        -0.0536
     42 C31        -7.1542    3.5459   -0.3377 C.2       1 <0>        -0.0377
     43 C32        -5.8520    3.9009    0.0472 C.2       1 <0>        -0.0592
     44 H1          4.5392    1.7893    1.2506 H         1 <0>         0.0572
     45 H2          5.3519   -1.1303   -0.4113 H         1 <0>         0.0598
     46 H3          3.1772    3.8784   -0.5146 H         1 <0>         0.0286
     47 H4          3.3690    3.8966    1.2519 H         1 <0>         0.0286
     48 H5          6.9392    3.1406   -0.8019 H         1 <0>         0.0465
     49 H6          5.6290    3.5427   -1.9391 H         1 <0>         0.0465
     50 H7          5.2020    5.2106   -0.2306 H         1 <0>         0.0281
     51 H8          5.7852    4.1311    1.0516 H         1 <0>         0.0281
     52 H9          5.2200   -1.3688   -2.8865 H         1 <0>         0.0290
     53 H10         3.7564   -0.4209   -2.9534 H         1 <0>         0.0290
     54 H11         0.8203   -0.0113    3.1645 H         1 <0>         0.0345
     55 H12         0.4243   -1.3980   -0.1119 H         1 <0>         0.1519
     56 H13         2.3766    0.6949   -1.8859 H         1 <0>         0.2145
     57 H14         3.3185   -2.8405   -3.1268 H         1 <0>         0.0296
     58 H15         3.7672   -0.7774    3.0395 H         1 <0>         0.0234
     59 H16         2.8182   -0.4324    4.4858 H         1 <0>         0.0234
     60 H17         3.1101    0.8477    3.3116 H         1 <0>         0.0234
     61 H18         2.1489   -2.7451    2.7831 H         1 <0>         0.0234
     62 H19         1.0042   -2.2243    3.9959 H         1 <0>         0.0234
     63 H20         0.4491   -2.4521    2.3457 H         1 <0>         0.0234
     64 H21        -1.4762   -0.7448   -1.0000 H         1 <0>         0.0450
     65 H22        -5.1248   -1.0141    1.1720 H         1 <0>         0.0515
     66 H23        -1.8160   -2.6097    0.4809 H         1 <0>         0.0437
     67 H24        -2.6738   -1.6566    1.6852 H         1 <0>         0.0437
     68 H25         4.7703   -3.1023   -0.4155 H         1 <0>         0.0232
     69 H26         5.0316   -3.8962   -1.9315 H         1 <0>         0.0232
     70 H27         3.5868   -4.2854   -1.0194 H         1 <0>         0.0232
     71 H28         1.4931   -2.3469   -2.3221 H         1 <0>         0.0232
     72 H29         1.6852   -2.8468   -0.8392 H         1 <0>         0.0232
     73 H30         1.8101   -1.0576   -1.4956 H         1 <0>         0.0232
     74 H31        -2.3975    1.6074   -0.3056 H         1 <0>         0.0583
     75 H32        -6.5896   -2.0754   -0.4534 H         1 <0>         0.0333
     76 H33        -5.6839   -1.4167   -1.8280 H         1 <0>         0.0333
     77 H34        -4.5744   -3.3486    1.4352 H         1 <0>         0.0391
     78 H35        -5.1487   -3.6944   -0.2131 H         1 <0>         0.0391
     79 H36        -3.5275   -4.1451    0.2441 H         1 <0>         0.0391
     80 H37        -3.8428    3.2823    0.4773 H         1 <0>         0.0624
     81 H38        -9.4192    1.9235   -1.1583 H         1 <0>         0.1664
     82 H39        -7.9391    4.2889   -0.4233 H         1 <0>         0.0638
     83 H40        -5.6320    4.9439    0.2645 H         1 <0>         0.0618
@<TRIPOS>BOND
     1    1   40 1
     2    2   13 1
     3    2   16 1
     4    3   13 1
     5    3   56 1
     6    4   19 2
     7    5   20 2
     8    6   26 2
     9    7   13 1
    10    7   14 1
    11    7   19 am
    12    8   12 1
    13    8   17 1
    14    8   20 am
    15    9   16 1
    16    9   26 am
    17    9   55 1
    18   10   28 1
    19   10   29 1
    20   10   38 1
    21   11   39 1
    22   11   40 2
    23   11   81 1
    24   12   13 1
    25   12   15 1
    26   12   44 1
    27   14   20 1
    28   14   21 1
    29   14   45 1
    30   15   18 1
    31   15   46 1
    32   15   47 1
    33   16   19 1
    34   16   22 1
    35   17   18 1
    36   17   48 1
    37   17   49 1
    38   18   50 1
    39   18   51 1
    40   21   23 1
    41   21   52 1
    42   21   53 1
    43   22   24 1
    44   22   25 1
    45   22   54 1
    46   23   30 1
    47   23   31 1
    48   23   57 1
    49   24   58 1
    50   24   59 1
    51   24   60 1
    52   25   61 1
    53   25   62 1
    54   25   63 1
    55   26   27 1
    56   27   29 1
    57   27   33 1
    58   27   64 1
    59   28   32 1
    60   28   34 1
    61   28   65 1
    62   29   66 1
    63   29   67 1
    64   30   68 1
    65   30   69 1
    66   30   70 1
    67   31   71 1
    68   31   72 1
    69   31   73 1
    70   32   33 2
    71   32   35 1
    72   33   74 1
    73   34   36 1
    74   34   75 1
    75   34   76 1
    76   35   37 1
    77   35   41 2
    78   36   37 2
    79   36   40 1
    80   37   39 2
    81   38   77 1
    82   38   78 1
    83   38   79 1
    84   39   42 1
    85   41   43 1
    86   41   80 1
    87   42   43 2
    88   42   82 1
    89   43   83 1
