@<TRIPOS>MOLECULE
DB01183
   45    49     0     0     0
SMALL
USER_CHARGES

@<TRIPOS>ATOM
      1 O1         -2.7273   -0.4183   -1.7264 O.3       1 <0>        -0.4764
      2 O2          0.2544    2.6708   -0.1637 O.3       1 <0>        -0.3860
      3 O3         -4.3138    1.4114   -0.5189 O.2       1 <0>        -0.2934
      4 O4         -3.7798   -3.0804   -1.1432 O.3       1 <0>        -0.5033
      5 N1          2.0379    0.5782    0.0959 N.3       1 <0>        -0.2927
      6 C1         -0.7539    0.5327   -0.7022 C.3       1 <0>         0.0746
      7 C2         -0.2427    1.4532    0.4160 C.3       1 <0>         0.0957
      8 C3          0.9476    0.6975    1.0989 C.3       1 <0>         0.0444
      9 C4         -2.1128    0.8541   -1.3450 C.3       1 <0>         0.1701
     10 C5          0.3636    0.3195   -1.7505 C.3       1 <0>        -0.0238
     11 C6         -1.1359   -0.7883   -0.1291 C.ar      1 <0>         0.0141
     12 C7         -1.3683    1.8672    1.3805 C.3       1 <0>        -0.0147
     13 C8          0.5012   -0.6653    1.7379 C.3       1 <0>        -0.0089
     14 C9          1.6757   -0.1717   -1.1111 C.3       1 <0>         0.0006
     15 C10        -0.5455   -1.4124    0.9532 C.ar      1 <0>        -0.0382
     16 C11        -2.5258    2.5122    0.6200 C.3       1 <0>         0.0123
     17 C12        -3.0959    1.5576   -0.4046 C.2       1 <0>         0.1745
     18 C13        -2.2248   -1.3044   -0.8020 C.ar      1 <0>         0.1669
     19 C14         3.3009    0.1114    0.6573 C.3       1 <0>         0.0172
     20 C15        -1.0429   -2.6685    1.3004 C.ar      1 <0>        -0.0546
     21 C16        -2.7213   -2.5478   -0.4856 C.ar      1 <0>         0.1588
     22 C17        -2.1110   -3.2371    0.5726 C.ar      1 <0>        -0.0162
     23 C18         4.4279    0.2650   -0.3172 C.2       1 <0>        -0.0772
     24 C19         5.1773   -0.7509   -0.7600 C.2       1 <0>        -0.1014
     25 H1          1.3328    1.3404    1.9019 H         1 <0>         0.0494
     26 H2         -2.0065    1.4781   -2.2396 H         1 <0>         0.0824
     27 H3          0.5540    1.2622   -2.2802 H         1 <0>         0.0288
     28 H4          0.0581   -0.4028   -2.5193 H         1 <0>         0.0288
     29 H5         -0.9833    2.5967    2.1035 H         1 <0>         0.0298
     30 H6         -1.7459    1.0147    1.9550 H         1 <0>         0.0298
     31 H7          0.0670   -0.4399    2.7211 H         1 <0>         0.0329
     32 H8          1.3554   -1.3220    1.9271 H         1 <0>         0.0329
     33 H9          1.6006   -1.2449   -0.8948 H         1 <0>         0.0427
     34 H10         2.4444   -0.0690   -1.8858 H         1 <0>         0.0427
     35 H11        -2.2303    3.4360    0.1138 H         1 <0>         0.0344
     36 H12        -3.3194    2.7693    1.3310 H         1 <0>         0.0344
     37 H13        -0.3697    2.9693   -0.8460 H         1 <0>         0.2103
     38 H14         3.2335   -0.9310    0.9893 H         1 <0>         0.0470
     39 H15         3.5569    0.7102    1.5402 H         1 <0>         0.0470
     40 H16        -0.6250   -3.2110    2.1442 H         1 <0>         0.0622
     41 H17        -2.4820   -4.2174    0.8635 H         1 <0>         0.0655
     42 H18         4.6522    1.2681   -0.6724 H         1 <0>         0.0579
     43 H19        -4.0630   -2.4502   -1.8285 H         1 <0>         0.2923
     44 H20         5.9841   -0.5725   -1.4625 H         1 <0>         0.0532
     45 H21         5.0011   -1.7703   -0.4351 H         1 <0>         0.0532
@<TRIPOS>BOND
     1    1    9 1
     2    1   18 1
     3    2    7 1
     4    2   37 1
     5    3   17 2
     6    4   21 1
     7    4   43 1
     8    5    8 1
     9    5   14 1
    10    5   19 1
    11    6    7 1
    12    6    9 1
    13    6   10 1
    14    6   11 1
    15    7    8 1
    16    7   12 1
    17    8   13 1
    18    8   25 1
    19    9   17 1
    20    9   26 1
    21   10   14 1
    22   10   27 1
    23   10   28 1
    24   11   15 ar
    25   11   18 ar
    26   12   16 1
    27   12   29 1
    28   12   30 1
    29   13   15 1
    30   13   31 1
    31   13   32 1
    32   14   33 1
    33   14   34 1
    34   15   20 ar
    35   16   17 1
    36   16   35 1
    37   16   36 1
    38   18   21 ar
    39   19   23 1
    40   19   38 1
    41   19   39 1
    42   20   22 ar
    43   20   40 1
    44   21   22 ar
    45   22   41 1
    46   23   24 2
    47   23   42 1
    48   24   44 1
    49   24   45 1
