@<TRIPOS>MOLECULE
DB01202
   26    26     0     0     0
SMALL
USER_CHARGES

@<TRIPOS>ATOM
      1 O1          0.9881    0.1219    2.4224 O.2       1 <0>        -0.2756
      2 O2         -2.0884   -2.1498   -1.1144 O.2       1 <0>        -0.2740
      3 N1          0.3001   -0.0777    0.1799 N.am      1 <0>        -0.2899
      4 N2         -0.3893   -2.8028    0.2858 N.am      1 <0>        -0.3278
      5 C1          0.9252   -0.0155   -1.1199 C.3       1 <0>         0.0159
      6 C2         -1.0795   -0.4839    0.3388 C.3       1 <0>         0.1017
      7 C3          2.1918    0.7735   -0.8551 C.3       1 <0>        -0.0289
      8 C4          2.5424    0.4293    0.5875 C.3       1 <0>         0.0256
      9 C5          1.1965    0.1605    1.2190 C.2       1 <0>         0.2162
     10 C6         -2.0557    0.5395   -0.2496 C.3       1 <0>        -0.0286
     11 C7         -1.2510   -1.8743   -0.2584 C.2       1 <0>         0.2310
     12 C8         -1.8898    1.9508    0.3022 C.3       1 <0>        -0.0631
     13 H1         -1.2874   -0.5723    1.4133 H         1 <0>         0.0596
     14 H2          0.2859    0.4826   -1.8530 H         1 <0>         0.0465
     15 H3          1.1553   -1.0317   -1.4556 H         1 <0>         0.0465
     16 H4          1.9818    1.8478   -0.9314 H         1 <0>         0.0285
     17 H5          2.9957    0.5376   -1.5579 H         1 <0>         0.0285
     18 H6          3.0543    1.2536    1.0899 H         1 <0>         0.0359
     19 H7          3.1463   -0.4816    0.6463 H         1 <0>         0.0359
     20 H8         -3.0821    0.2058   -0.0495 H         1 <0>         0.0285
     21 H9         -1.9621    0.5783   -1.3418 H         1 <0>         0.0285
     22 H10        -1.9774    1.9558    1.3932 H         1 <0>         0.0230
     23 H11        -0.9187    2.3756    0.0306 H         1 <0>         0.0230
     24 H12        -2.6662    2.6070   -0.1040 H         1 <0>         0.0230
     25 H13         0.2896   -2.5595    0.9998 H         1 <0>         0.1450
     26 H14        -0.4052   -3.7708   -0.0181 H         1 <0>         0.1450
@<TRIPOS>BOND
     1    1    9 2
     2    2   11 2
     3    3    5 1
     4    3    6 1
     5    3    9 am
     6    4   11 am
     7    4   25 1
     8    4   26 1
     9    5    7 1
    10    5   14 1
    11    5   15 1
    12    6   10 1
    13    6   11 1
    14    6   13 1
    15    7    8 1
    16    7   16 1
    17    7   17 1
    18    8    9 1
    19    8   18 1
    20    8   19 1
    21   10   12 1
    22   10   20 1
    23   10   21 1
    24   12   22 1
    25   12   23 1
    26   12   24 1
