@<TRIPOS>MOLECULE
DB01244
   61    63     0     0     0
SMALL
USER_CHARGES

@<TRIPOS>ATOM
      1 O1          2.0978    0.6376    0.3473 O.3       1 <0>        -0.3779
      2 N1          1.6776   -1.8953   -0.8785 N.3       1 <0>        -0.2957
      3 N2         -1.3421   -0.0876    0.2776 N.pl3     1 <0>        -0.3240
      4 C1          0.7468   -1.3501    0.0985 C.3       1 <0>         0.0494
      5 C2          2.7658   -2.6471   -0.2541 C.3       1 <0>        -0.0007
      6 C3          1.0377   -2.8416   -1.7918 C.3       1 <0>        -0.0007
      7 C4          3.3566   -3.4250   -1.4207 C.3       1 <0>        -0.0390
      8 C5          2.2219   -3.5498   -2.4328 C.3       1 <0>        -0.0390
      9 C6         -0.3672   -0.6123   -0.6509 C.3       1 <0>         0.0303
     10 C7          1.4975   -0.4318    1.0700 C.3       1 <0>         0.0647
     11 C8         -1.5470    1.3603    0.3317 C.3       1 <0>         0.0373
     12 C9         -2.0734   -0.9325    1.1232 C.ar      1 <0>         0.0300
     13 C10         2.8481    1.4869    1.2036 C.3       1 <0>         0.0500
     14 C11         3.4630    2.6320    0.3944 C.3       1 <0>        -0.0232
     15 C12        -2.6534    1.7713   -0.5997 C.ar      1 <0>        -0.0302
     16 C13        -1.9688   -0.7947    2.5073 C.ar      1 <0>        -0.0407
     17 C14        -2.9056   -1.9118    0.5807 C.ar      1 <0>        -0.0407
     18 C15         2.3834    3.4730   -0.2903 C.3       1 <0>        -0.0606
     19 C16         4.3317    3.5115    1.2909 C.3       1 <0>        -0.0606
     20 C17        -2.3630    2.1085   -1.9217 C.ar      1 <0>        -0.0571
     21 C18        -3.9704    1.8150   -0.1421 C.ar      1 <0>        -0.0571
     22 C19        -2.6962   -1.6363    3.3490 C.ar      1 <0>        -0.0600
     23 C20        -3.6329   -2.7532    1.4224 C.ar      1 <0>        -0.0600
     24 C21        -3.5283   -2.6154    2.8066 C.ar      1 <0>        -0.0616
     25 C22        -3.3894    2.4897   -2.7859 C.ar      1 <0>        -0.0615
     26 C23        -4.9968    2.1961   -1.0064 C.ar      1 <0>        -0.0615
     27 C24        -4.7063    2.5334   -2.3284 C.ar      1 <0>        -0.0617
     28 H1          0.3121   -2.1682    0.6890 H         1 <0>         0.0501
     29 H2          3.5345   -2.0069    0.1898 H         1 <0>         0.0427
     30 H3          2.3995   -3.3465    0.5084 H         1 <0>         0.0427
     31 H4          0.4127   -3.5707   -1.2601 H         1 <0>         0.0427
     32 H5          0.4396   -2.3591   -2.5706 H         1 <0>         0.0427
     33 H6          3.7257   -4.4055   -1.1031 H         1 <0>         0.0278
     34 H7          4.1949   -2.8793   -1.8698 H         1 <0>         0.0278
     35 H8          2.5084   -3.0611   -3.3716 H         1 <0>         0.0278
     36 H9          1.9913   -4.5964   -2.6559 H         1 <0>         0.0278
     37 H10        -0.8996   -1.2667   -1.3487 H         1 <0>         0.0480
     38 H11         0.0596    0.1887   -1.2685 H         1 <0>         0.0480
     39 H12         0.8093   -0.0093    1.8092 H         1 <0>         0.0576
     40 H13         2.2571   -0.9772    1.6418 H         1 <0>         0.0576
     41 H14        -0.6231    1.8898    0.0640 H         1 <0>         0.0513
     42 H15        -1.7732    1.7008    1.3503 H         1 <0>         0.0513
     43 H16         3.6448    0.9036    1.6811 H         1 <0>         0.0562
     44 H17         2.1937    1.8870    1.9882 H         1 <0>         0.0562
     45 H18         4.0926    2.2017   -0.3948 H         1 <0>         0.0318
     46 H19        -1.3238   -0.0409    2.9506 H         1 <0>         0.0636
     47 H20        -3.0062   -2.0281   -0.4952 H         1 <0>         0.0636
     48 H21         1.6954    3.9082    0.4425 H         1 <0>         0.0233
     49 H22         1.7954    2.8694   -0.9896 H         1 <0>         0.0233
     50 H23         2.8337    4.2928   -0.8601 H         1 <0>         0.0233
     51 H24         3.7410    3.9715    2.0904 H         1 <0>         0.0233
     52 H25         4.8009    4.3140    0.7118 H         1 <0>         0.0233
     53 H26         5.1310    2.9240    1.7550 H         1 <0>         0.0233
     54 H27        -1.3415    2.0804   -2.2913 H         1 <0>         0.0621
     55 H28        -4.2104    1.5552    0.8856 H         1 <0>         0.0621
     56 H29        -2.6142   -1.5297    4.4267 H         1 <0>         0.0618
     57 H30        -4.2825   -3.5144    1.0002 H         1 <0>         0.0618
     58 H31        -4.0950   -3.2704    3.4619 H         1 <0>         0.0618
     59 H32        -3.1631    2.7526   -3.8152 H         1 <0>         0.0618
     60 H33        -6.0222    2.2300   -0.6503 H         1 <0>         0.0618
     61 H34        -5.5053    2.8301   -3.0013 H         1 <0>         0.0618
@<TRIPOS>BOND
     1    1   10 1
     2    1   13 1
     3    2    4 1
     4    2    5 1
     5    2    6 1
     6    3    9 1
     7    3   11 1
     8    3   12 1
     9    4    9 1
    10    4   10 1
    11    4   28 1
    12    5    7 1
    13    5   29 1
    14    5   30 1
    15    6    8 1
    16    6   31 1
    17    6   32 1
    18    7    8 1
    19    7   33 1
    20    7   34 1
    21    8   35 1
    22    8   36 1
    23    9   37 1
    24    9   38 1
    25   10   39 1
    26   10   40 1
    27   11   15 1
    28   11   41 1
    29   11   42 1
    30   12   16 ar
    31   12   17 ar
    32   13   14 1
    33   13   43 1
    34   13   44 1
    35   14   18 1
    36   14   19 1
    37   14   45 1
    38   15   20 ar
    39   15   21 ar
    40   16   22 ar
    41   16   46 1
    42   17   23 ar
    43   17   47 1
    44   18   48 1
    45   18   49 1
    46   18   50 1
    47   19   51 1
    48   19   52 1
    49   19   53 1
    50   20   25 ar
    51   20   54 1
    52   21   26 ar
    53   21   55 1
    54   22   24 ar
    55   22   56 1
    56   23   24 ar
    57   23   57 1
    58   24   58 1
    59   25   27 ar
    60   25   59 1
    61   26   27 ar
    62   26   60 1
    63   27   61 1
