@<TRIPOS>MOLECULE
DB01113
   46    48     0     0     0
SMALL
USER_CHARGES

@<TRIPOS>ATOM
      1 O1          4.5929    1.6619    0.6927 O.3       1 <0>        -0.4914
      2 O2          5.7823   -0.6775   -0.2159 O.3       1 <0>        -0.4914
      3 O3         -4.8648   -0.1172    1.8234 O.3       1 <0>        -0.4914
      4 O4         -6.0775    0.7476   -0.5228 O.3       1 <0>        -0.4915
      5 N1         -0.5553   -1.1367   -0.8938 N.ar      1 <0>        -0.2589
      6 C1          1.6427   -0.2504   -0.3482 C.ar      1 <0>         0.0074
      7 C2         -0.4725    1.0615    0.0510 C.3       1 <0>         0.0155
      8 C3          0.2508   -0.1619   -0.4163 C.ar      1 <0>         0.0534
      9 C4          2.2426   -1.4400   -0.8106 C.ar      1 <0>        -0.0110
     10 C5         -1.9762    0.9761   -0.0999 C.ar      1 <0>        -0.0379
     11 C6          2.4453    0.7864    0.1557 C.ar      1 <0>        -0.0069
     12 C7          3.6404   -1.5658   -0.7579 C.ar      1 <0>        -0.0085
     13 C8          3.8320    0.6446    0.2005 C.ar      1 <0>         0.1621
     14 C9          1.4253   -2.4613   -1.3088 C.ar      1 <0>        -0.0357
     15 C10         4.4282   -0.5289   -0.2551 C.ar      1 <0>         0.1621
     16 C11        -2.7308    0.4643    0.9411 C.ar      1 <0>        -0.0128
     17 C12        -2.5626    1.4111   -1.2754 C.ar      1 <0>        -0.0545
     18 C13         0.0536   -2.2609   -1.3275 C.ar      1 <0>         0.0285
     19 C14        -4.1165    0.3850    0.8019 C.ar      1 <0>         0.1618
     20 C15        -4.7251    0.8189   -0.3760 C.ar      1 <0>         0.1615
     21 C16        -3.9481    1.3319   -1.4145 C.ar      1 <0>        -0.0160
     22 C17         5.0436    2.6434   -0.2387 C.3       1 <0>         0.0790
     23 C18         6.3375   -1.2455    0.9684 C.3       1 <0>         0.0790
     24 C19        -4.1655   -0.5387    2.9929 C.3       1 <0>         0.0790
     25 C20        -6.6065   -0.4532   -1.0820 C.3       1 <0>         0.0790
     26 H1         -0.1177    1.9365   -0.5097 H         1 <0>         0.0377
     27 H2         -0.2381    1.2502    1.1071 H         1 <0>         0.0377
     28 H3          2.0136    1.7150    0.5206 H         1 <0>         0.0662
     29 H4          4.1208   -2.4765   -1.1111 H         1 <0>         0.0661
     30 H5          1.8422   -3.3944   -1.6754 H         1 <0>         0.0639
     31 H6         -2.2000    0.1412    1.8297 H         1 <0>         0.0658
     32 H7         -1.9657    1.8103   -2.0902 H         1 <0>         0.0622
     33 H8         -0.6130   -3.0288   -1.7060 H         1 <0>         0.0830
     34 H9         -4.4154    1.6720   -2.3347 H         1 <0>         0.0655
     35 H10         5.6702    2.1842   -1.0098 H         1 <0>         0.0660
     36 H11         5.6409    3.3814    0.3035 H         1 <0>         0.0660
     37 H12         4.1921    3.1531   -0.7005 H         1 <0>         0.0660
     38 H13         7.4234   -1.2919    0.8496 H         1 <0>         0.0660
     39 H14         5.9583   -2.2609    1.1209 H         1 <0>         0.0660
     40 H15         6.1072   -0.6233    1.8390 H         1 <0>         0.0660
     41 H16        -3.6545    0.2979    3.4816 H         1 <0>         0.0660
     42 H17        -3.4899   -1.3741    2.7802 H         1 <0>         0.0660
     43 H18        -4.9151   -0.9092    3.7000 H         1 <0>         0.0660
     44 H19        -6.3543   -1.3142   -0.4549 H         1 <0>         0.0660
     45 H20        -6.2258   -0.6032   -2.0972 H         1 <0>         0.0660
     46 H21        -7.6949   -0.3600   -1.1267 H         1 <0>         0.0660
@<TRIPOS>BOND
     1    1   13 1
     2    1   22 1
     3    2   15 1
     4    2   23 1
     5    3   19 1
     6    3   24 1
     7    4   20 1
     8    4   25 1
     9    5    8 ar
    10    5   18 ar
    11    6    8 ar
    12    6    9 ar
    13    6   11 ar
    14    7    8 1
    15    7   10 1
    16    7   26 1
    17    7   27 1
    18    9   12 ar
    19    9   14 ar
    20   10   16 ar
    21   10   17 ar
    22   11   13 ar
    23   11   28 1
    24   12   15 ar
    25   12   29 1
    26   13   15 ar
    27   14   18 ar
    28   14   30 1
    29   16   19 ar
    30   16   31 1
    31   17   21 ar
    32   17   32 1
    33   18   33 1
    34   19   20 ar
    35   20   21 ar
    36   21   34 1
    37   22   35 1
    38   22   36 1
    39   22   37 1
    40   23   38 1
    41   23   39 1
    42   23   40 1
    43   24   41 1
    44   24   42 1
    45   24   43 1
    46   25   44 1
    47   25   45 1
    48   25   46 1
