@<TRIPOS>MOLECULE
DB01036
   55    56     0     0     0
SMALL
USER_CHARGES

@<TRIPOS>ATOM
      1 O1         -2.6000   -1.1652   -2.1709 O.3       1 <0>        -0.5065
      2 N1          1.9982    0.4250    0.2526 N.3       1 <0>        -0.2975
      3 C1          1.5538   -0.3274   -0.9157 C.3       1 <0>         0.0003
      4 C2          0.0950    0.0136   -1.2413 C.3       1 <0>        -0.0292
      5 C3         -0.8671   -0.3087   -0.0679 C.3       1 <0>         0.0138
      6 C4          1.9008    1.8643    0.0055 C.3       1 <0>         0.0050
      7 C5          3.3712    0.0616    0.6068 C.3       1 <0>         0.0050
      8 C6         -2.2643    0.2617   -0.2748 C.ar      1 <0>         0.0017
      9 C7         -0.9210   -1.7921    0.2852 C.ar      1 <0>        -0.0398
     10 C8          2.7730    2.2571   -1.1835 C.3       1 <0>        -0.0497
     11 C9          2.3131    2.6242    1.2621 C.3       1 <0>        -0.0497
     12 C10         4.3150    0.3666   -0.5530 C.3       1 <0>        -0.0497
     13 C11         3.4245   -1.4157    0.9829 C.3       1 <0>        -0.0497
     14 C12        -2.7067    1.2363    0.5966 C.ar      1 <0>        -0.0516
     15 C13        -3.0442   -0.2042   -1.3133 C.ar      1 <0>         0.1206
     16 C14        -1.1836   -2.1545    1.5885 C.ar      1 <0>        -0.0580
     17 C15        -0.7057   -2.7194   -0.7114 C.ar      1 <0>        -0.0580
     18 C16        -3.9845    1.7677    0.4217 C.ar      1 <0>        -0.0499
     19 C17        -4.3220    0.3272   -1.4881 C.ar      1 <0>        -0.0196
     20 C18        -4.7921    1.3132   -0.6208 C.ar      1 <0>        -0.0554
     21 C19        -1.2333   -3.5104    1.9114 C.ar      1 <0>        -0.0615
     22 C20        -0.7555   -4.0755   -0.3885 C.ar      1 <0>        -0.0615
     23 C21        -1.0193   -4.4710    0.9230 C.ar      1 <0>        -0.0617
     24 C22        -4.4882    2.8222    1.3482 C.3       1 <0>        -0.0397
     25 H1          2.1171   -0.1996   -1.8405 H         1 <0>         0.0427
     26 H2          1.5986   -1.4006   -0.7198 H         1 <0>         0.0427
     27 H3         -0.1789   -0.5170   -2.1597 H         1 <0>         0.0287
     28 H4         -0.0193    1.0610   -1.5436 H         1 <0>         0.0287
     29 H5         -0.4519    0.1923    0.8177 H         1 <0>         0.0399
     30 H6          0.8647    2.1675   -0.1694 H         1 <0>         0.0457
     31 H7          3.7108    0.5842    1.5066 H         1 <0>         0.0457
     32 H8          2.2641    3.1464   -1.5965 H         1 <0>         0.0245
     33 H9          3.7369    2.7065   -0.9360 H         1 <0>         0.0245
     34 H10         2.7920    1.6300   -2.0737 H         1 <0>         0.0245
     35 H11         1.8147    2.2287    2.1546 H         1 <0>         0.0245
     36 H12         2.0080    3.6740    1.1686 H         1 <0>         0.0245
     37 H13         3.3934    2.6401    1.4380 H         1 <0>         0.0245
     38 H14         5.1701   -0.3203   -0.4292 H         1 <0>         0.0245
     39 H15         4.0202    0.1252   -1.5729 H         1 <0>         0.0245
     40 H16         4.8398    1.3175   -0.4533 H         1 <0>         0.0245
     41 H17         2.6194   -1.6853    1.6761 H         1 <0>         0.0245
     42 H18         4.3692   -1.6324    1.4965 H         1 <0>         0.0245
     43 H19         3.3858   -2.0870    0.1187 H         1 <0>         0.0245
     44 H20        -2.0790    1.5943    1.4081 H         1 <0>         0.0624
     45 H21        -1.3515   -1.4138    2.3644 H         1 <0>         0.0620
     46 H22        -0.4921   -2.4751   -1.7436 H         1 <0>         0.0620
     47 H23        -4.9616   -0.0171   -2.2965 H         1 <0>         0.0654
     48 H24        -5.7886    1.7206   -0.7687 H         1 <0>         0.0621
     49 H25        -1.4386   -3.8184    2.9325 H         1 <0>         0.0618
     50 H26        -0.5877   -4.8242   -1.1573 H         1 <0>         0.0618
     51 H27        -1.0576   -5.5268    1.1744 H         1 <0>         0.0618
     52 H28        -5.5792    2.7834    1.4376 H         1 <0>         0.0278
     53 H29        -4.0797    2.6891    2.3558 H         1 <0>         0.0278
     54 H30        -4.2020    3.8127    0.9810 H         1 <0>         0.0278
     55 H31        -3.2946   -1.3529   -2.8251 H         1 <0>         0.2921
@<TRIPOS>BOND
     1    1   15 1
     2    1   55 1
     3    2    3 1
     4    2    6 1
     5    2    7 1
     6    3    4 1
     7    3   25 1
     8    3   26 1
     9    4    5 1
    10    4   27 1
    11    4   28 1
    12    5    8 1
    13    5    9 1
    14    5   29 1
    15    6   10 1
    16    6   11 1
    17    6   30 1
    18    7   12 1
    19    7   13 1
    20    7   31 1
    21    8   14 ar
    22    8   15 ar
    23    9   16 ar
    24    9   17 ar
    25   10   32 1
    26   10   33 1
    27   10   34 1
    28   11   35 1
    29   11   36 1
    30   11   37 1
    31   12   38 1
    32   12   39 1
    33   12   40 1
    34   13   41 1
    35   13   42 1
    36   13   43 1
    37   14   18 ar
    38   14   44 1
    39   15   19 ar
    40   16   21 ar
    41   16   45 1
    42   17   22 ar
    43   17   46 1
    44   18   20 ar
    45   18   24 1
    46   19   20 ar
    47   19   47 1
    48   20   48 1
    49   21   23 ar
    50   21   49 1
    51   22   23 ar
    52   22   50 1
    53   23   51 1
    54   24   52 1
    55   24   53 1
    56   24   54 1
