@<TRIPOS>MOLECULE
DB01145
   41    42     0     0     0
SMALL
USER_CHARGES

@<TRIPOS>ATOM
      1 S1         -0.0006   -2.9021   -0.0012 S.o2      1 <0>         0.0251
      2 S2          6.8583    2.0899    0.3607 S.o       1 <0>         0.0117
      3 S3         -6.8620    2.0870   -0.3597 S.o       1 <0>         0.0117
      4 O1         -0.2172   -3.6336    1.2391 O.2       1 <0>        -0.1643
      5 O2          0.2568   -3.6318   -1.2360 O.2       1 <0>        -0.1643
      6 O3          7.3335    2.6148   -1.0838 O.3       1 <0>        -0.2679
      7 O4         -7.3374    2.6106    1.0852 O.3       1 <0>        -0.2679
      8 O5          6.1820    3.2339    1.0564 O.2       1 <0>        -0.1653
      9 O6         -6.1861    3.2318   -1.0545 O.2       1 <0>        -0.1653
     10 N1          4.7643    0.5745    0.7525 N.pl3     1 <0>        -0.3250
     11 N2         -4.7673    0.5729   -0.7525 N.pl3     1 <0>        -0.3250
     12 C1          1.4201   -1.8660    0.2233 C.ar      1 <0>         0.0937
     13 C2         -1.4005   -1.8822   -0.2217 C.ar      1 <0>         0.0937
     14 C3          2.1459   -1.4736   -0.8849 C.ar      1 <0>        -0.0347
     15 C4         -2.1479   -1.4752    0.8835 C.ar      1 <0>        -0.0347
     16 C5          1.7693   -1.4747    1.5016 C.ar      1 <0>        -0.0347
     17 C6         -1.7714   -1.4745   -1.5031 C.ar      1 <0>        -0.0347
     18 C7          3.6345   -0.2505    0.5735 C.ar      1 <0>         0.0284
     19 C8         -3.6371   -0.2518   -0.5741 C.ar      1 <0>         0.0284
     20 C9          3.2638   -0.6579   -0.7082 C.ar      1 <0>        -0.0390
     21 C10        -3.2662   -0.6600    0.7073 C.ar      1 <0>        -0.0390
     22 C11         2.8872   -0.6594    1.6783 C.ar      1 <0>        -0.0390
     23 C12        -2.8896   -0.6595   -1.6792 C.ar      1 <0>        -0.0390
     24 C13         5.5667    1.0234   -0.3465 C.3       1 <0>         0.1360
     25 C14        -5.5699    1.0206    0.3468 C.3       1 <0>         0.1360
     26 H1          1.8688   -1.7717   -1.8913 H         1 <0>         0.0637
     27 H2         -1.8741   -1.7735    1.8915 H         1 <0>         0.0637
     28 H3          1.1957   -1.7766    2.3721 H         1 <0>         0.0637
     29 H4         -1.2000   -1.7748   -2.3769 H         1 <0>         0.0637
     30 H5          3.8166   -0.3625   -1.5950 H         1 <0>         0.0637
     31 H6         -3.8193   -0.3659    1.5942 H         1 <0>         0.0637
     32 H7          3.1645   -0.3477    2.6822 H         1 <0>         0.0637
     33 H8         -3.1672   -0.3473   -2.6828 H         1 <0>         0.0637
     34 H9          4.9984    0.8340    1.7047 H         1 <0>         0.1476
     35 H10        -5.0016    0.8330   -1.7046 H         1 <0>         0.1476
     36 H11         6.0619    0.1942   -0.8610 H         1 <0>         0.0712
     37 H12         4.9831    1.6226   -1.0531 H         1 <0>         0.0712
     38 H13        -6.0648    0.1908    0.8607 H         1 <0>         0.0712
     39 H14        -4.9866    1.6195    1.0539 H         1 <0>         0.0712
     40 H15         7.6027    3.5618   -1.0333 H         1 <0>         0.2429
     41 H16        -7.6072    3.5576    1.0354 H         1 <0>         0.2429
@<TRIPOS>BOND
     1    1    4 2
     2    1    5 2
     3    1   12 1
     4    1   13 1
     5    2    6 1
     6    2    8 2
     7    2   24 1
     8    3    7 1
     9    3    9 2
    10    3   25 1
    11    6   40 1
    12    7   41 1
    13   10   18 1
    14   10   24 1
    15   10   34 1
    16   11   19 1
    17   11   25 1
    18   11   35 1
    19   12   14 ar
    20   12   16 ar
    21   13   15 ar
    22   13   17 ar
    23   14   20 ar
    24   14   26 1
    25   15   21 ar
    26   15   27 1
    27   16   22 ar
    28   16   28 1
    29   17   23 ar
    30   17   29 1
    31   18   20 ar
    32   18   22 ar
    33   19   21 ar
    34   19   23 ar
    35   20   30 1
    36   21   31 1
    37   22   32 1
    38   23   33 1
    39   24   36 1
    40   24   37 1
    41   25   38 1
    42   25   39 1
