@<TRIPOS>MOLECULE
DB01366
   43    44     0     0     0
SMALL
USER_CHARGES

@<TRIPOS>ATOM
      1 O1         -0.7379    1.1273    2.1076 O.3       1 <0>        -0.3856
      2 O2          5.2268    1.1256    0.1392 O.3       1 <0>        -0.5047
      3 O3          4.3197   -3.5832   -1.0777 O.2       1 <0>        -0.2679
      4 N1         -2.5977    0.4525    0.0125 N.3       1 <0>        -0.3083
      5 N2          4.1205   -1.3939   -0.3924 N.am      1 <0>        -0.3192
      6 C1         -1.1780    0.7026   -0.2699 C.3       1 <0>         0.0377
      7 C2         -0.3117    0.3527    0.9773 C.3       1 <0>         0.0960
      8 C3         -0.9989    2.1597   -0.7420 C.3       1 <0>        -0.0377
      9 C4          1.1563    0.5075    0.7388 C.ar      1 <0>        -0.0083
     10 C5         -2.7956   -0.9182    0.4495 C.3       1 <0>         0.0023
     11 C6          1.9512   -0.5447    0.2754 C.ar      1 <0>         0.0078
     12 C7         -1.8558    2.5073   -1.9547 C.3       1 <0>        -0.0638
     13 C8          1.7297    1.7547    0.9959 C.ar      1 <0>        -0.0519
     14 C9          3.3203   -0.3351    0.0736 C.ar      1 <0>         0.0915
     15 C10        -2.3444   -1.8904   -0.6371 C.3       1 <0>        -0.0499
     16 C11        -4.2645   -1.1321    0.8007 C.3       1 <0>        -0.0499
     17 C12         3.8955    0.9108    0.3303 C.ar      1 <0>         0.1407
     18 C13         1.3891   -1.8636   -0.0049 C.2       1 <0>        -0.0471
     19 C14         3.0956    1.9556    0.7920 C.ar      1 <0>        -0.0178
     20 C15         2.1687   -2.8568   -0.4474 C.2       1 <0>         0.0034
     21 C16         3.6267   -2.6540   -0.6685 C.2       1 <0>         0.2493
     22 H1         -0.8445    0.1006   -1.1221 H         1 <0>         0.0489
     23 H2         -0.4480   -0.6697    1.3206 H         1 <0>         0.0659
     24 H3          0.0426    2.3354   -1.0306 H         1 <0>         0.0279
     25 H4         -1.2335    2.8600    0.0688 H         1 <0>         0.0279
     26 H5         -2.9327    1.1015    0.7233 H         1 <0>         0.1225
     27 H6         -2.2792   -1.1516    1.3829 H         1 <0>         0.0455
     28 H7         -2.9238    2.4790   -1.7184 H         1 <0>         0.0230
     29 H8         -1.6217    3.5199   -2.2997 H         1 <0>         0.0230
     30 H9         -1.6643    1.8165   -2.7821 H         1 <0>         0.0230
     31 H10         1.1360    2.5920    1.3532 H         1 <0>         0.0622
     32 H11        -2.5338   -2.9208   -0.3133 H         1 <0>         0.0245
     33 H12        -2.9226   -1.7378   -1.5569 H         1 <0>         0.0245
     34 H13        -1.2954   -1.8441   -0.9102 H         1 <0>         0.0245
     35 H14        -4.5802   -0.4600    1.6067 H         1 <0>         0.0245
     36 H15        -4.4380   -2.1594    1.1395 H         1 <0>         0.0245
     37 H16        -4.9145   -0.9520   -0.0633 H         1 <0>         0.0245
     38 H17        -1.6567    0.8835    2.3077 H         1 <0>         0.2103
     39 H18         0.3581   -2.0960    0.1939 H         1 <0>         0.0626
     40 H19         3.5233    2.9336    0.9972 H         1 <0>         0.0655
     41 H20         5.1113   -1.2157   -0.5312 H         1 <0>         0.1690
     42 H21         1.7656   -3.8459   -0.6345 H         1 <0>         0.0672
     43 H22         5.4364    2.0467    0.3706 H         1 <0>         0.2922
@<TRIPOS>BOND
     1    1    7 1
     2    1   38 1
     3    2   17 1
     4    2   43 1
     5    3   21 2
     6    4    6 1
     7    4   10 1
     8    4   26 1
     9    5   14 1
    10    5   21 am
    11    5   41 1
    12    6    7 1
    13    6    8 1
    14    6   22 1
    15    7    9 1
    16    7   23 1
    17    8   12 1
    18    8   24 1
    19    8   25 1
    20    9   11 ar
    21    9   13 ar
    22   10   15 1
    23   10   16 1
    24   10   27 1
    25   11   14 ar
    26   11   18 1
    27   12   28 1
    28   12   29 1
    29   12   30 1
    30   13   19 ar
    31   13   31 1
    32   14   17 ar
    33   15   32 1
    34   15   33 1
    35   15   34 1
    36   16   35 1
    37   16   36 1
    38   16   37 1
    39   17   19 ar
    40   18   20 2
    41   18   39 1
    42   19   40 1
    43   20   21 1
    44   20   42 1
