@<TRIPOS>MOLECULE
DB01230
   21    22     0     0     0
SMALL
USER_CHARGES

@<TRIPOS>ATOM
      1 O1          1.6865    0.0607   -0.8470 O.3       1 <0>        -0.4497
      2 O2          0.8372   -2.3073    1.5341 O.2       1 <0>        -0.2691
      3 N1          2.5564   -0.8428    1.0255 N.2       1 <0>        -0.1284
      4 N2          3.7153    0.8789   -0.1753 N.pl3     1 <0>        -0.3151
      5 C1          0.7462   -0.9467   -0.4631 C.3       1 <0>         0.2051
      6 C2         -0.5924   -0.3239   -0.2503 C.ar      1 <0>         0.0018
      7 C3          1.3529   -1.4642    0.8125 C.2       1 <0>         0.2856
      8 C4         -1.7458   -1.1041   -0.3341 C.ar      1 <0>        -0.0546
      9 C5         -0.6909    1.0384    0.0327 C.ar      1 <0>        -0.0546
     10 C6          2.6972    0.0089    0.0661 C.2       1 <0>         0.2724
     11 C7         -2.9976   -0.5220   -0.1350 C.ar      1 <0>        -0.0614
     12 C8         -1.9428    1.6205    0.2319 C.ar      1 <0>        -0.0614
     13 C9         -3.0961    0.8403    0.1481 C.ar      1 <0>        -0.0617
     14 H1          0.7374   -1.7235   -1.2342 H         1 <0>         0.0885
     15 H2         -1.6809   -2.1667   -0.5529 H         1 <0>         0.0622
     16 H3          0.1845    1.6756    0.1184 H         1 <0>         0.0622
     17 H4         -3.8955   -1.1294   -0.1997 H         1 <0>         0.0618
     18 H5         -2.0200    2.6806    0.4553 H         1 <0>         0.0618
     19 H6         -4.0707    1.2934    0.3040 H         1 <0>         0.0618
     20 H7          3.6979    1.5023   -0.9751 H         1 <0>         0.1464
     21 H8          4.5212    0.9311    0.4381 H         1 <0>         0.1464
@<TRIPOS>BOND
     1    1    5 1
     2    1   10 1
     3    2    7 2
     4    3    7 1
     5    3   10 2
     6    4   10 1
     7    4   20 1
     8    4   21 1
     9    5    6 1
    10    5    7 1
    11    5   14 1
    12    6    8 ar
    13    6    9 ar
    14    8   11 ar
    15    8   15 1
    16    9   12 ar
    17    9   16 1
    18   11   13 ar
    19   11   17 1
    20   12   13 ar
    21   12   18 1
    22   13   19 1
