@<TRIPOS>MOLECULE
DB01046
   59    60     0     0     0
SMALL
USER_CHARGES

@<TRIPOS>ATOM
      1 F1          4.3975    0.5315    1.8925 F         1 <0>        -0.1998
      2 F2          2.9616   -1.0080    1.3295 F         1 <0>        -0.1998
      3 O1          1.9691    1.5244    1.2765 O.3       1 <0>        -0.3400
      4 O2          3.6626    2.1002   -0.2873 O.3       1 <0>        -0.3601
      5 O3         -2.0853    3.9995    1.4250 O.2       1 <0>        -0.2970
      6 O4         -8.1533   -4.0489    0.8387 O.3       1 <0>        -0.4806
      7 O5         -8.2796   -2.7048   -0.9871 O.2       1 <0>        -0.2510
      8 C1          0.0992    1.7997   -0.2175 C.3       1 <0>        -0.0045
      9 C2          1.0256    2.4682    0.7947 C.3       1 <0>         0.0722
     10 C3         -1.0010    2.8392   -0.4225 C.3       1 <0>         0.0228
     11 C4          0.9131    1.3776   -1.4288 C.3       1 <0>        -0.0421
     12 C5          0.0622    2.9748    1.8598 C.3       1 <0>         0.0328
     13 C6          2.8396    1.0503    0.2299 C.3       1 <0>         0.2325
     14 C7          2.0361    0.4482   -0.9455 C.3       1 <0>         0.0076
     15 C8         -1.1327    3.3538    1.0066 C.2       1 <0>         0.1392
     16 C9         -2.2918    2.2519   -0.9578 C.3       1 <0>        -0.0432
     17 C10         3.7446   -0.0183    0.8431 C.3       1 <0>         0.3013
     18 C11        -2.7890    1.0939   -0.0886 C.3       1 <0>        -0.0524
     19 C12         4.7377   -0.5772   -0.1594 C.3       1 <0>         0.0161
     20 C13        -4.0709    0.4811   -0.6561 C.3       1 <0>        -0.0530
     21 C14         5.6428   -1.6299    0.4866 C.3       1 <0>        -0.0477
     22 C15        -4.6154   -0.6793    0.1825 C.3       1 <0>        -0.0526
     23 C16         6.6638   -2.1726   -0.5133 C.3       1 <0>        -0.0557
     24 C17        -5.9110   -1.3182   -0.3256 C.3       1 <0>        -0.0430
     25 C18        -6.4358   -2.4318    0.5799 C.3       1 <0>         0.0448
     26 C19         7.5430   -3.2430    0.1132 C.3       1 <0>        -0.0653
     27 C20        -7.7075   -3.0452    0.0388 C.2       1 <0>         0.3047
     28 H1         -0.2641    0.8852    0.2626 H         1 <0>         0.0333
     29 H2          1.5489    3.3299    0.3570 H         1 <0>         0.0604
     30 H3         -0.6544    3.6678   -1.0508 H         1 <0>         0.0381
     31 H4          0.2803    0.8476   -2.1493 H         1 <0>         0.0271
     32 H5          1.3255    2.2506   -1.9469 H         1 <0>         0.0271
     33 H6         -0.2157    2.1940    2.5732 H         1 <0>         0.0367
     34 H7          0.4643    3.8437    2.3859 H         1 <0>         0.0367
     35 H8          2.6809    0.2408   -1.8067 H         1 <0>         0.0319
     36 H9          1.5737   -0.4969   -0.6337 H         1 <0>         0.0319
     37 H10        -2.1356    1.9004   -1.9847 H         1 <0>         0.0272
     38 H11        -3.0632    3.0305   -0.9994 H         1 <0>         0.0272
     39 H12        -2.9759    1.4261    0.9383 H         1 <0>         0.0265
     40 H13        -2.0653    0.2770   -0.0470 H         1 <0>         0.0265
     41 H14         4.2217   -1.0588   -0.9960 H         1 <0>         0.0324
     42 H15         5.3677    0.2242   -0.5617 H         1 <0>         0.0324
     43 H16         3.2153    2.5263   -1.0352 H         1 <0>         0.2129
     44 H17        -4.8418    1.2583   -0.7278 H         1 <0>         0.0265
     45 H18        -3.8849    0.1251   -1.6770 H         1 <0>         0.0265
     46 H19         5.0310   -2.4548    0.8716 H         1 <0>         0.0267
     47 H20         6.1695   -1.1912    1.3427 H         1 <0>         0.0267
     48 H21        -4.7819   -0.3203    1.2063 H         1 <0>         0.0265
     49 H22        -3.8444   -1.4575    0.2502 H         1 <0>         0.0265
     50 H23         7.2962   -1.3560   -0.8805 H         1 <0>         0.0263
     51 H24         6.1463   -2.5977   -1.3812 H         1 <0>         0.0263
     52 H25        -6.6781   -0.5397   -0.4249 H         1 <0>         0.0270
     53 H26        -5.7419   -1.7143   -1.3349 H         1 <0>         0.0270
     54 H27        -6.6469   -2.0305    1.5770 H         1 <0>         0.0377
     55 H28        -5.6836   -3.2236    0.6645 H         1 <0>         0.0377
     56 H29         8.0993   -2.8431    0.9670 H         1 <0>         0.0230
     57 H30         8.2661   -3.6161   -0.6188 H         1 <0>         0.0230
     58 H31         6.9429   -4.0903    0.4601 H         1 <0>         0.0230
     59 H32        -8.9770   -4.4536    0.4923 H         1 <0>         0.2951
@<TRIPOS>BOND
     1    1   17 1
     2    2   17 1
     3    3    9 1
     4    3   13 1
     5    4   13 1
     6    4   43 1
     7    5   15 2
     8    6   27 1
     9    6   59 1
    10    7   27 2
    11    8    9 1
    12    8   10 1
    13    8   11 1
    14    8   28 1
    15    9   12 1
    16    9   29 1
    17   10   15 1
    18   10   16 1
    19   10   30 1
    20   11   14 1
    21   11   31 1
    22   11   32 1
    23   12   15 1
    24   12   33 1
    25   12   34 1
    26   13   14 1
    27   13   17 1
    28   14   35 1
    29   14   36 1
    30   16   18 1
    31   16   37 1
    32   16   38 1
    33   17   19 1
    34   18   20 1
    35   18   39 1
    36   18   40 1
    37   19   21 1
    38   19   41 1
    39   19   42 1
    40   20   22 1
    41   20   44 1
    42   20   45 1
    43   21   23 1
    44   21   46 1
    45   21   47 1
    46   22   24 1
    47   22   48 1
    48   22   49 1
    49   23   26 1
    50   23   50 1
    51   23   51 1
    52   24   25 1
    53   24   52 1
    54   24   53 1
    55   25   27 1
    56   25   54 1
    57   25   55 1
    58   26   56 1
    59   26   57 1
    60   26   58 1
