@<TRIPOS>MOLECULE
DB01718
   62    61     0     0     0
SMALL
USER_CHARGES

@<TRIPOS>ATOM
      1 N1          8.5914    0.1338   -0.1114 N.4       1 <0>         0.2369
      2 C1          7.3827   -0.7235   -0.1163 C.3       1 <0>        -0.0309
      3 C2          6.1221    0.1234    0.0155 C.3       1 <0>        -0.0125
      4 C3          4.8336   -0.7055    0.0278 C.3       1 <0>        -0.0483
      5 C4          3.5682    0.1479    0.1717 C.3       1 <0>        -0.0529
      6 C5          2.2770   -0.6723    0.1070 C.3       1 <0>        -0.0531
      7 C6          1.0107    0.1873    0.1917 C.3       1 <0>        -0.0531
      8 C7         -0.2802   -0.6343    0.1532 C.3       1 <0>        -0.0531
      9 C8         -1.5476    0.2266    0.1789 C.3       1 <0>        -0.0531
     10 C9          9.8605   -0.7082   -0.3079 C.3       1 <0>        -0.0418
     11 C10         8.7223    0.8872    1.2202 C.3       1 <0>        -0.0418
     12 C11         8.5305    1.1724   -1.2411 C.3       1 <0>        -0.0418
     13 C12        -2.8719   -0.5336    0.0554 C.3       1 <0>        -0.0531
     14 C13        -4.1046    0.3700    0.1437 C.3       1 <0>        -0.0531
     15 C14        -5.3943   -0.4436    0.0055 C.3       1 <0>        -0.0531
     16 C15        -6.6656    0.4099    0.0644 C.3       1 <0>        -0.0531
     17 C16        -7.9531   -0.4101   -0.0520 C.3       1 <0>        -0.0531
     18 C17        -9.2214    0.4498   -0.0646 C.3       1 <0>        -0.0533
     19 C18       -10.5081   -0.3637   -0.2097 C.3       1 <0>        -0.0559
     20 C19       -11.7387    0.5280   -0.1403 C.3       1 <0>        -0.0653
     21 H1          7.4644   -1.4369    0.7128 H         1 <0>         0.0815
     22 H2          7.3694   -1.2897   -1.0556 H         1 <0>         0.0815
     23 H3          6.1314    0.7080    0.9404 H         1 <0>         0.0317
     24 H4          6.0302    0.8282   -0.8167 H         1 <0>         0.0317
     25 H5          4.8748   -1.4285    0.8517 H         1 <0>         0.0267
     26 H6          4.7736   -1.2858   -0.9012 H         1 <0>         0.0267
     27 H7          3.6048    0.6929    1.1228 H         1 <0>         0.0265
     28 H8          3.5522    0.9016   -0.6253 H         1 <0>         0.0265
     29 H9          2.2586   -1.2442   -0.8288 H         1 <0>         0.0265
     30 H10         2.2740   -1.4026    0.9255 H         1 <0>         0.0265
     31 H11         1.0342    0.7761    1.1169 H         1 <0>         0.0265
     32 H12         1.0088    0.9029   -0.6398 H         1 <0>         0.0265
     33 H13        -0.2978   -1.3268    1.0035 H         1 <0>         0.0265
     34 H14        -0.2873   -1.2485   -0.7558 H         1 <0>         0.0265
     35 H15        -1.4924    0.9597   -0.6359 H         1 <0>         0.0265
     36 H16        -1.5571    0.8035    1.1124 H         1 <0>         0.0265
     37 H17        10.7302   -0.0447   -0.2925 H         1 <0>         0.0778
     38 H18         9.7835   -1.2187   -1.2724 H         1 <0>         0.0778
     39 H19         9.9157   -1.4339    0.5088 H         1 <0>         0.0778
     40 H20         7.9494    1.6558    1.2911 H         1 <0>         0.0778
     41 H21         9.7046    1.3700    1.2418 H         1 <0>         0.0778
     42 H22         8.6403    0.1630    2.0359 H         1 <0>         0.0778
     43 H23         8.2879    0.6550   -2.1737 H         1 <0>         0.0778
     44 H24         7.7895    1.9392   -1.0024 H         1 <0>         0.0778
     45 H25         9.5140    1.6470   -1.3188 H         1 <0>         0.0778
     46 H26        -2.8827   -1.0743   -0.8989 H         1 <0>         0.0265
     47 H27        -2.9212   -1.2902    0.8482 H         1 <0>         0.0265
     48 H28        -4.1054    0.9011    1.1029 H         1 <0>         0.0265
     49 H29        -4.0617    1.1280   -0.6473 H         1 <0>         0.0265
     50 H30        -5.4326   -1.1966    0.8027 H         1 <0>         0.0265
     51 H31        -5.3770   -0.9907   -0.9454 H         1 <0>         0.0265
     52 H32        -6.6349    1.1504   -0.7444 H         1 <0>         0.0265
     53 H33        -6.6809    0.9709    1.0069 H         1 <0>         0.0265
     54 H34        -7.9176   -1.0052   -0.9728 H         1 <0>         0.0265
     55 H35        -8.0055   -1.1205    0.7822 H         1 <0>         0.0265
     56 H36        -9.1582    1.1728   -0.8875 H         1 <0>         0.0265
     57 H37        -9.2629    1.0319    0.8645 H         1 <0>         0.0265
     58 H38       -10.5638   -1.1148    0.5867 H         1 <0>         0.0263
     59 H39       -10.5010   -0.9019   -1.1643 H         1 <0>         0.0263
     60 H40       -11.7901    1.0523    0.8191 H         1 <0>         0.0230
     61 H41       -12.6475   -0.0722   -0.2485 H         1 <0>         0.0230
     62 H42       -11.7272    1.2749   -0.9406 H         1 <0>         0.0230
@<TRIPOS>BOND
     1    1    2 1
     2    1   10 1
     3    1   11 1
     4    1   12 1
     5    2    3 1
     6    2   21 1
     7    2   22 1
     8    3    4 1
     9    3   23 1
    10    3   24 1
    11    4    5 1
    12    4   25 1
    13    4   26 1
    14    5    6 1
    15    5   27 1
    16    5   28 1
    17    6    7 1
    18    6   29 1
    19    6   30 1
    20    7    8 1
    21    7   31 1
    22    7   32 1
    23    8    9 1
    24    8   33 1
    25    8   34 1
    26    9   13 1
    27    9   35 1
    28    9   36 1
    29   10   37 1
    30   10   38 1
    31   10   39 1
    32   11   40 1
    33   11   41 1
    34   11   42 1
    35   12   43 1
    36   12   44 1
    37   12   45 1
    38   13   14 1
    39   13   46 1
    40   13   47 1
    41   14   15 1
    42   14   48 1
    43   14   49 1
    44   15   16 1
    45   15   50 1
    46   15   51 1
    47   16   17 1
    48   16   52 1
    49   16   53 1
    50   17   18 1
    51   17   54 1
    52   17   55 1
    53   18   19 1
    54   18   56 1
    55   18   57 1
    56   19   20 1
    57   19   58 1
    58   19   59 1
    59   20   60 1
    60   20   61 1
    61   20   62 1
