@<TRIPOS>MOLECULE
DB01628
   39    41     0     0     0
SMALL
USER_CHARGES

@<TRIPOS>ATOM
      1 Cl1        -5.0631    3.8283   -0.0132 Cl        1 <0>        -0.0820
      2 S1          4.0734    1.9182   -0.0190 S.o2      1 <0>        -0.0059
      3 O1          4.4650    2.5097   -1.2904 O.2       1 <0>        -0.1696
      4 O2          4.5005    2.5371    1.2283 O.2       1 <0>        -0.1696
      5 N1         -3.8755    0.0266    0.0483 N.ar      1 <0>        -0.2529
      6 N2         -0.7780   -2.8428    1.3428 N.ar      1 <0>        -0.2595
      7 C1         -0.4456    1.5277    0.0073 C.ar      1 <0>        -0.0157
      8 C2         -1.8872    1.4039    0.0158 C.ar      1 <0>         0.0095
      9 C3          2.3337    1.7679   -0.0091 C.ar      1 <0>         0.0879
     10 C4         -2.5320    0.1769    0.0400 C.ar      1 <0>         0.0802
     11 C5          0.2543    1.6087    1.2110 C.ar      1 <0>        -0.0522
     12 C6          0.2439    1.5670   -1.2045 C.ar      1 <0>        -0.0522
     13 C7          1.6440    1.7289    1.2028 C.ar      1 <0>        -0.0363
     14 C8          1.6337    1.6870   -1.2127 C.ar      1 <0>        -0.0363
     15 C9         -1.8105   -1.0782    0.0588 C.ar      1 <0>         0.0190
     16 C10        -2.6749    2.5506   -0.0011 C.ar      1 <0>        -0.0321
     17 C11         4.6614    0.2399    0.0074 C.3       1 <0>         0.0596
     18 C12        -1.4604   -1.7170   -1.1232 C.ar      1 <0>        -0.0494
     19 C13        -4.0607    2.4368    0.0068 C.ar      1 <0>         0.0596
     20 C14        -1.4511   -1.6736    1.2548 C.ar      1 <0>         0.0370
     21 C15        -4.6068    1.1636    0.0315 C.ar      1 <0>         0.0466
     22 C16        -0.7674   -2.9215   -1.0735 C.ar      1 <0>        -0.0400
     23 C17        -0.4528   -3.4378    0.1731 C.ar      1 <0>         0.0382
     24 C18         0.2897   -4.7291    0.2640 C.3       1 <0>        -0.0224
     25 H1         -0.2676    1.5782    2.1646 H         1 <0>         0.0624
     26 H2         -0.2864    1.5036   -2.1519 H         1 <0>         0.0624
     27 H3          2.1698    1.7837    2.1519 H         1 <0>         0.0637
     28 H4          2.1504    1.7082   -2.1681 H         1 <0>         0.0637
     29 H5         -2.2119    3.5353   -0.0202 H         1 <0>         0.0639
     30 H6          4.2925   -0.2795   -0.8790 H         1 <0>         0.0468
     31 H7          5.7532    0.2631   -0.0022 H         1 <0>         0.0468
     32 H8          4.3072   -0.2466    0.9182 H         1 <0>         0.0468
     33 H9         -1.7194   -1.2915   -2.0894 H         1 <0>         0.0625
     34 H10        -1.6966   -1.2234    2.2123 H         1 <0>         0.0836
     35 H11        -5.6814    1.0078    0.0388 H         1 <0>         0.0844
     36 H12        -0.4872   -3.4319   -1.9888 H         1 <0>         0.0636
     37 H13         0.4661   -5.0090    1.3077 H         1 <0>         0.0292
     38 H14        -0.2845   -5.5324   -0.2084 H         1 <0>         0.0292
     39 H15         1.2621   -4.6447   -0.2315 H         1 <0>         0.0292
@<TRIPOS>BOND
     1    1   19 1
     2    2    3 2
     3    2    4 2
     4    2    9 1
     5    2   17 1
     6    5   10 ar
     7    5   21 ar
     8    6   20 ar
     9    6   23 ar
    10    7    8 1
    11    7   11 ar
    12    7   12 ar
    13    8   10 ar
    14    8   16 ar
    15    9   13 ar
    16    9   14 ar
    17   10   15 1
    18   11   13 ar
    19   11   25 1
    20   12   14 ar
    21   12   26 1
    22   13   27 1
    23   14   28 1
    24   15   18 ar
    25   15   20 ar
    26   16   19 ar
    27   16   29 1
    28   17   30 1
    29   17   31 1
    30   17   32 1
    31   18   22 ar
    32   18   33 1
    33   19   21 ar
    34   20   34 1
    35   21   35 1
    36   22   23 ar
    37   22   36 1
    38   23   24 1
    39   24   37 1
    40   24   38 1
    41   24   39 1
