@<TRIPOS>MOLECULE
DB01154
   35    35     0     0     0
SMALL
USER_CHARGES

@<TRIPOS>ATOM
      1 S1         -2.3612   -4.3728    0.1864 S.2       1 <0>        -0.0181
      2 O1         -2.3656    0.3244    1.7525 O.2       1 <0>        -0.2743
      3 O2         -0.3727   -0.6458   -2.3964 O.2       1 <0>        -0.2743
      4 N1         -2.2169   -1.8352    0.9933 N.am      1 <0>        -0.2667
      5 N2         -1.2214   -2.3197   -1.0773 N.am      1 <0>        -0.2667
      6 C1         -0.8301   -0.1139   -0.0740 C.3       1 <0>         0.1291
      7 C2          0.5395   -0.2480    0.6155 C.3       1 <0>        -0.0212
      8 C3          1.7088    0.1081   -0.3212 C.3       1 <0>        -0.0493
      9 C4         -1.0367    1.3427   -0.5141 C.3       1 <0>        -0.0123
     10 C5          0.5825    0.6470    1.8567 C.3       1 <0>        -0.0610
     11 C6         -1.8885   -0.4884    0.9610 C.2       1 <0>         0.2341
     12 C7         -0.8002   -1.0182   -1.3041 C.2       1 <0>         0.2341
     13 C8          3.0846   -0.0808    0.3221 C.3       1 <0>        -0.0556
     14 C9         -2.4141    1.5426   -1.0529 C.2       1 <0>        -0.0897
     15 C10        -1.8977   -2.7737    0.0351 C.2       1 <0>         0.1429
     16 C11         4.2035    0.2152   -0.6655 C.3       1 <0>        -0.0653
     17 C12        -3.3037    2.3878   -0.5203 C.2       1 <0>        -0.1026
     18 H1          0.6792   -1.2854    0.9506 H         1 <0>         0.0313
     19 H2          1.6386    1.1469   -0.6618 H         1 <0>         0.0268
     20 H3          1.6946   -0.5266   -1.2117 H         1 <0>         0.0268
     21 H4         -0.3421    1.6371   -1.3091 H         1 <0>         0.0322
     22 H5         -0.8864    2.0536    0.3040 H         1 <0>         0.0322
     23 H6          1.4787    0.4153    2.4447 H         1 <0>         0.0233
     24 H7         -0.2306    0.4838    2.5643 H         1 <0>         0.0233
     25 H8          0.6481    1.7135    1.6237 H         1 <0>         0.0233
     26 H9          3.1885   -1.1080    0.6895 H         1 <0>         0.0263
     27 H10         3.2113    0.5905    1.1771 H         1 <0>         0.0263
     28 H11        -2.8143   -2.1432    1.7554 H         1 <0>         0.1565
     29 H12        -1.0883   -2.9834   -1.8351 H         1 <0>         0.1565
     30 H13        -2.7034    0.9879   -1.9417 H         1 <0>         0.0567
     31 H14         4.1538   -0.4564   -1.5284 H         1 <0>         0.0230
     32 H15         4.1450    1.2465   -1.0281 H         1 <0>         0.0230
     33 H16         5.1780    0.0786   -0.1859 H         1 <0>         0.0230
     34 H17        -4.2874    2.4988   -0.9632 H         1 <0>         0.0532
     35 H18        -3.0733    2.9792    0.3588 H         1 <0>         0.0532
@<TRIPOS>BOND
     1    1   15 2
     2    2   11 2
     3    3   12 2
     4    4   11 am
     5    4   15 1
     6    4   28 1
     7    5   12 am
     8    5   15 1
     9    5   29 1
    10    6    7 1
    11    6    9 1
    12    6   11 1
    13    6   12 1
    14    7    8 1
    15    7   10 1
    16    7   18 1
    17    8   13 1
    18    8   19 1
    19    8   20 1
    20    9   14 1
    21    9   21 1
    22    9   22 1
    23   10   23 1
    24   10   24 1
    25   10   25 1
    26   13   16 1
    27   13   26 1
    28   13   27 1
    29   14   17 2
    30   14   30 1
    31   16   31 1
    32   16   32 1
    33   16   33 1
    34   17   34 1
    35   17   35 1
