@<TRIPOS>MOLECULE
DB01260
   62    66     0     0     0
SMALL
USER_CHARGES

@<TRIPOS>ATOM
      1 O1          2.7065    0.4526    0.9097 O.3       1 <0>        -0.3320
      2 O2          3.2833    1.9306   -0.8239 O.3       1 <0>        -0.3426
      3 O3         -1.3642   -2.7338   -0.0822 O.3       1 <0>        -0.3914
      4 O4          4.0990   -1.6221   -1.4445 O.2       1 <0>        -0.2918
      5 O5          5.0162   -2.8680    0.7524 O.3       1 <0>        -0.3874
      6 O6         -6.2093    1.6356    2.4722 O.2       1 <0>        -0.2879
      7 C1          1.0728   -0.8166   -0.4572 C.3       1 <0>         0.0121
      8 C2          0.3061    0.4955   -0.7344 C.3       1 <0>        -0.0268
      9 C3         -1.1952    0.2929   -0.9880 C.3       1 <0>        -0.0310
     10 C4          2.5105   -0.2492   -0.3154 C.3       1 <0>         0.1640
     11 C5         -1.8325   -0.3503    0.2947 C.3       1 <0>         0.0007
     12 C6          2.6101    0.8192   -1.4081 C.3       1 <0>         0.0987
     13 C7          1.1616    1.1938   -1.7937 C.3       1 <0>        -0.0196
     14 C8          0.4740   -1.4447    0.8157 C.3       1 <0>        -0.0177
     15 C9         -1.0594   -1.6282    0.7586 C.3       1 <0>         0.0600
     16 C10        -3.4036   -0.4792    0.1888 C.3       1 <0>         0.0131
     17 C11        -1.8660    1.6361   -1.3288 C.3       1 <0>        -0.0458
     18 C12         1.0169   -1.8203   -1.6399 C.3       1 <0>        -0.0561
     19 C13        -3.3808    1.5180   -1.4406 C.3       1 <0>        -0.0302
     20 C14         3.3577    1.6833    0.5813 C.3       1 <0>         0.1663
     21 C15         3.5855   -1.2946   -0.3757 C.2       1 <0>         0.1931
     22 C16        -3.9496    0.9027   -0.1877 C.2       1 <0>        -0.0559
     23 C17        -3.8770   -1.4930   -0.8764 C.3       1 <0>        -0.0520
     24 C18        -3.9760   -0.9544    1.5162 C.2       1 <0>        -0.0701
     25 C19         3.9935   -1.9138    0.9441 C.3       1 <0>         0.1053
     26 C20         2.6727    2.8315    1.3171 C.3       1 <0>        -0.0108
     27 C21         4.8222    1.5901    0.9921 C.3       1 <0>        -0.0108
     28 C22        -4.8465    1.5764    0.5494 C.2       1 <0>        -0.0149
     29 C23        -4.8671   -0.2875    2.2559 C.2       1 <0>        -0.0180
     30 C24        -5.3773    1.0227    1.8119 C.2       1 <0>         0.1787
     31 H1          0.3681    1.1278    0.1651 H         1 <0>         0.0311
     32 H2         -1.3401   -0.3736   -1.8442 H         1 <0>         0.0308
     33 H3         -1.6510    0.3789    1.1037 H         1 <0>         0.0340
     34 H4          3.1601    0.5168   -2.3046 H         1 <0>         0.0631
     35 H5          0.9222    0.8057   -2.7901 H         1 <0>         0.0294
     36 H6          1.0007    2.2765   -1.7992 H         1 <0>         0.0294
     37 H7          0.6959   -0.8096    1.6824 H         1 <0>         0.0297
     38 H8          0.9449   -2.4156    1.0053 H         1 <0>         0.0297
     39 H9         -1.3912   -1.9017    1.7664 H         1 <0>         0.0596
     40 H10        -1.4729    2.0203   -2.2775 H         1 <0>         0.0271
     41 H11        -1.6176    2.3808   -0.5607 H         1 <0>         0.0271
     42 H12        -0.0014   -2.0458   -1.9620 H         1 <0>         0.0236
     43 H13         1.5427   -1.4536   -2.5274 H         1 <0>         0.0236
     44 H14         1.4804   -2.7737   -1.3607 H         1 <0>         0.0236
     45 H15        -3.6498    0.9089   -2.3110 H         1 <0>         0.0310
     46 H16        -3.8014    2.5143   -1.6238 H         1 <0>         0.0310
     47 H17        -4.9496   -1.3782   -1.0814 H         1 <0>         0.0241
     48 H18        -3.3542   -1.3753   -1.8304 H         1 <0>         0.0241
     49 H19        -3.7391   -2.5310   -0.5545 H         1 <0>         0.0241
     50 H20        -3.6572   -1.9279    1.8822 H         1 <0>         0.0582
     51 H21        -0.9116   -3.5151    0.2783 H         1 <0>         0.2098
     52 H22         3.1410   -2.4273    1.3900 H         1 <0>         0.0637
     53 H23         4.3685   -1.1619    1.6405 H         1 <0>         0.0637
     54 H24         3.1503    3.7907    1.0909 H         1 <0>         0.0281
     55 H25         1.6246    2.9171    1.0113 H         1 <0>         0.0281
     56 H26         2.6812    2.6703    2.4001 H         1 <0>         0.0281
     57 H27         4.9246    1.3376    2.0527 H         1 <0>         0.0281
     58 H28         5.3443    0.8173    0.4178 H         1 <0>         0.0281
     59 H29         5.3477    2.5310    0.7963 H         1 <0>         0.0281
     60 H30        -5.2044    2.5580    0.2576 H         1 <0>         0.0655
     61 H31        -5.2439   -0.6937    3.1874 H         1 <0>         0.0653
     62 H32         5.8039   -2.3931    0.4359 H         1 <0>         0.2100
@<TRIPOS>BOND
     1    1   10 1
     2    1   20 1
     3    2   12 1
     4    2   20 1
     5    3   15 1
     6    3   51 1
     7    4   21 2
     8    5   25 1
     9    5   62 1
    10    6   30 2
    11    7    8 1
    12    7   10 1
    13    7   14 1
    14    7   18 1
    15    8    9 1
    16    8   13 1
    17    8   31 1
    18    9   11 1
    19    9   17 1
    20    9   32 1
    21   10   12 1
    22   10   21 1
    23   11   15 1
    24   11   16 1
    25   11   33 1
    26   12   13 1
    27   12   34 1
    28   13   35 1
    29   13   36 1
    30   14   15 1
    31   14   37 1
    32   14   38 1
    33   15   39 1
    34   16   22 1
    35   16   23 1
    36   16   24 1
    37   17   19 1
    38   17   40 1
    39   17   41 1
    40   18   42 1
    41   18   43 1
    42   18   44 1
    43   19   22 1
    44   19   45 1
    45   19   46 1
    46   20   26 1
    47   20   27 1
    48   21   25 1
    49   22   28 2
    50   23   47 1
    51   23   48 1
    52   23   49 1
    53   24   29 2
    54   24   50 1
    55   25   52 1
    56   25   53 1
    57   26   54 1
    58   26   55 1
    59   26   56 1
    60   27   57 1
    61   27   58 1
    62   27   59 1
    63   28   30 1
    64   28   60 1
    65   29   30 1
    66   29   61 1
