@<TRIPOS>MOLECULE
DB01087
   40    41     0     0     0
SMALL
USER_CHARGES

@<TRIPOS>ATOM
      1 O1         -3.3326   -2.4319   -0.9720 O.3       1 <0>        -0.4950
      2 N1          0.3821    0.1421    0.6425 N.pl3     1 <0>        -0.3395
      3 N2          4.8454    1.6126   -1.6287 N.3       1 <0>        -0.3300
      4 N3         -1.2172    2.4168    0.6327 N.ar      1 <0>        -0.2531
      5 C1          1.2560   -1.0123    0.6653 C.3       1 <0>         0.0179
      6 C2          2.7247   -0.5670    0.6681 C.3       1 <0>        -0.0337
      7 C3          3.0744    0.3155   -0.5366 C.3       1 <0>        -0.0390
      8 C4          0.9352   -1.8411    1.9048 C.3       1 <0>        -0.0467
      9 C5         -0.9412    0.0918    0.2425 C.ar      1 <0>         0.0571
     10 C6          4.5246    0.7923   -0.4664 C.3       1 <0>        -0.0068
     11 C7         -1.7515    1.2455    0.2383 C.ar      1 <0>         0.0919
     12 C8         -1.4960   -1.1413   -0.1704 C.ar      1 <0>         0.0030
     13 C9         -3.0957    1.1430   -0.1773 C.ar      1 <0>         0.0056
     14 C10        -2.8207   -1.2350   -0.5785 C.ar      1 <0>         0.1225
     15 C11        -3.6207   -0.0959   -0.5826 C.ar      1 <0>        -0.0107
     16 C12        -3.8786    2.3053   -0.1715 C.ar      1 <0>        -0.0510
     17 C13        -3.3308    3.5137    0.2343 C.ar      1 <0>        -0.0430
     18 C14        -2.0067    3.5152    0.6236 C.ar      1 <0>         0.0283
     19 C15        -2.4543   -3.5565   -0.9419 C.3       1 <0>         0.0788
     20 H1          1.1348   -1.6229   -0.2373 H         1 <0>         0.0495
     21 H2          3.3756   -1.4503    0.6750 H         1 <0>         0.0283
     22 H3          2.9375   -0.0086    1.5896 H         1 <0>         0.0283
     23 H4          2.9100   -0.2538   -1.4602 H         1 <0>         0.0278
     24 H5          2.4146    1.1904   -0.5757 H         1 <0>         0.0278
     25 H6          0.7169    1.0145    1.0372 H         1 <0>         0.1464
     26 H7          1.5890   -2.7188    1.9567 H         1 <0>         0.0247
     27 H8         -0.0964   -2.2022    1.9300 H         1 <0>         0.0247
     28 H9          1.0922   -1.2567    2.8192 H         1 <0>         0.0247
     29 H10         4.6904    1.3798    0.4430 H         1 <0>         0.0422
     30 H11         5.2069   -0.0638   -0.4342 H         1 <0>         0.0422
     31 H12        -0.8668   -2.0193   -0.1764 H         1 <0>         0.0673
     32 H13        -4.6578   -0.1740   -0.9031 H         1 <0>         0.0661
     33 H14        -4.9200    2.2753   -0.4835 H         1 <0>         0.0625
     34 H15         4.2087    2.4074   -1.6731 H         1 <0>         0.1182
     35 H16         4.6834    1.0770   -2.4809 H         1 <0>         0.1182
     36 H17        -3.9216    4.4220    0.2449 H         1 <0>         0.0633
     37 H18        -1.5243    4.4305    0.9507 H         1 <0>         0.0830
     38 H19        -2.1191   -3.7805    0.0767 H         1 <0>         0.0660
     39 H20        -1.6200   -3.4359   -1.6412 H         1 <0>         0.0660
     40 H21        -3.0305   -4.4231   -1.2832 H         1 <0>         0.0660
@<TRIPOS>BOND
     1    1   14 1
     2    1   19 1
     3    2    5 1
     4    2    9 1
     5    2   25 1
     6    3   10 1
     7    3   34 1
     8    3   35 1
     9    4   11 ar
    10    4   18 ar
    11    5    6 1
    12    5    8 1
    13    5   20 1
    14    6    7 1
    15    6   21 1
    16    6   22 1
    17    7   10 1
    18    7   23 1
    19    7   24 1
    20    8   26 1
    21    8   27 1
    22    8   28 1
    23    9   11 ar
    24    9   12 ar
    25   10   29 1
    26   10   30 1
    27   11   13 ar
    28   12   14 ar
    29   12   31 1
    30   13   15 ar
    31   13   16 ar
    32   14   15 ar
    33   15   32 1
    34   16   17 ar
    35   16   33 1
    36   17   18 ar
    37   17   36 1
    38   18   37 1
    39   19   38 1
    40   19   39 1
    41   19   40 1
