@<TRIPOS>MOLECULE
DB01019
   28    27     0     0     0
SMALL
USER_CHARGES

@<TRIPOS>ATOM
      1 O1         -1.3263    0.4267   -0.0991 O.3       1 <0>        -0.4422
      2 O2         -2.9150    0.1892    1.5500 O.2       1 <0>        -0.2267
      3 N1          1.5145    0.1642   -0.0159 N.4       1 <0>         0.2395
      4 N2         -3.2649    1.5637   -0.2598 N.am      1 <0>        -0.2950
      5 C1          0.6008   -0.9441   -0.5188 C.3       1 <0>         0.0069
      6 C2         -0.7722   -0.8647    0.1406 C.3       1 <0>         0.1412
      7 C3          1.6443    0.0671    1.4974 C.3       1 <0>        -0.0417
      8 C4          2.8886    0.0172   -0.6535 C.3       1 <0>        -0.0417
      9 C5          0.9244    1.5166   -0.3886 C.3       1 <0>        -0.0417
     10 C6         -1.7502   -1.9340   -0.3281 C.3       1 <0>        -0.0226
     11 C7         -2.5322    0.6796    0.4930 C.2       1 <0>         0.3981
     12 H1          0.5237   -0.8259   -1.6066 H         1 <0>         0.0851
     13 H2          1.0863   -1.9031   -0.3026 H         1 <0>         0.0851
     14 H3         -0.6632   -1.0098    1.2214 H         1 <0>         0.0786
     15 H4          1.9192   -0.9586    1.7607 H         1 <0>         0.0778
     16 H5          2.4347    0.7566    1.8118 H         1 <0>         0.0778
     17 H6          0.7109    0.3652    1.9809 H         1 <0>         0.0778
     18 H7          2.7758    0.1046   -1.7383 H         1 <0>         0.0778
     19 H8          3.5411    0.8082   -0.2715 H         1 <0>         0.0778
     20 H9          3.2895   -0.9652   -0.3871 H         1 <0>         0.0778
     21 H10         0.4796    1.4683   -1.3870 H         1 <0>         0.0778
     22 H11         0.2444    1.8764    0.3871 H         1 <0>         0.0778
     23 H12         1.7509    2.2365   -0.4197 H         1 <0>         0.0778
     24 H13        -2.0321   -1.7682   -1.3739 H         1 <0>         0.0267
     25 H14        -2.6768   -1.9441    0.2530 H         1 <0>         0.0267
     26 H15        -1.3025   -2.9298   -0.2460 H         1 <0>         0.0267
     27 H16        -2.9040    1.9423   -1.1290 H         1 <0>         0.1482
     28 H17        -4.1893    1.8651    0.0297 H         1 <0>         0.1482
@<TRIPOS>BOND
     1    1    6 1
     2    1   11 1
     3    2   11 2
     4    3    5 1
     5    3    7 1
     6    3    8 1
     7    3    9 1
     8    4   11 am
     9    4   27 1
    10    4   28 1
    11    5    6 1
    12    5   12 1
    13    5   13 1
    14    6   10 1
    15    6   14 1
    16    7   15 1
    17    7   16 1
    18    7   17 1
    19    8   18 1
    20    8   19 1
    21    8   20 1
    22    9   21 1
    23    9   22 1
    24    9   23 1
    25   10   24 1
    26   10   25 1
    27   10   26 1
