@<TRIPOS>MOLECULE
DB01319
   75    77     0     0     0
SMALL
USER_CHARGES

@<TRIPOS>ATOM
      1 S1         -3.5190   -0.5836   -1.5319 S.o2      1 <0>         0.0609
      2 P1          0.7640    2.3869   -2.8683 P.3       1 <0>         0.4727
      3 O1          0.1127    1.8522   -1.4916 O.3       1 <0>        -0.2803
      4 O2          3.3145    0.9711    1.4256 O.3       1 <0>        -0.4447
      5 O3          5.5646    0.2575    3.3315 O.3       1 <0>        -0.3760
      6 O4         -4.6525    0.0363   -2.1929 O.2       1 <0>        -0.1528
      7 O5         -2.6468   -1.4645   -2.2867 O.2       1 <0>        -0.1528
      8 O6         -0.4277    2.1527   -3.9359 O.3       1 <0>        -0.3026
      9 O7          0.7892    3.9935   -2.6857 O.3       1 <0>        -0.3026
     10 O8          3.7147    0.9152   -0.8353 O.2       1 <0>        -0.2265
     11 O9          2.0776    1.7622   -3.2375 O.2       1 <0>        -0.2275
     12 N1         -2.5709    0.6295   -0.7515 N.pl3     1 <0>        -0.1738
     13 N2          1.7475    0.0989    0.0827 N.am      1 <0>        -0.2754
     14 N3         -5.6585   -3.7285    3.0709 N.pl3     1 <0>        -0.3580
     15 C1         -0.1956    0.4622   -1.3874 C.3       1 <0>         0.1030
     16 C2          1.1087   -0.3295   -1.1456 C.3       1 <0>         0.0582
     17 C3         -1.2212    0.2518   -0.2705 C.3       1 <0>         0.0491
     18 C4         -3.2636    1.5466    0.1908 C.3       1 <0>         0.0229
     19 C5          0.9027   -1.8557   -1.0914 C.3       1 <0>        -0.0066
     20 C6         -2.6305    2.9434    0.1946 C.3       1 <0>        -0.0323
     21 C7          2.1668   -2.6516   -1.3011 C.ar      1 <0>        -0.0455
     22 C8          4.5836    1.5829    1.6291 C.3       1 <0>         0.1299
     23 C9         -4.1526   -1.5157   -0.1659 C.ar      1 <0>         0.1056
     24 C10        -2.6790    3.6067   -1.1825 C.3       1 <0>        -0.0615
     25 C11        -3.2550    3.8538    1.2529 C.3       1 <0>        -0.0615
     26 C12         4.5766    2.3706    2.9163 C.3       1 <0>         0.0101
     27 C13         2.9932    0.6829    0.1291 C.2       1 <0>         0.4009
     28 C14         5.6099    0.5064    1.9158 C.3       1 <0>         0.0848
     29 C15         4.7822    1.2854    3.9541 C.3       1 <0>         0.0513
     30 C16         2.5451   -3.0336   -2.5882 C.ar      1 <0>        -0.0585
     31 C17         2.9578   -3.0054   -0.2080 C.ar      1 <0>        -0.0585
     32 C18        -5.3678   -1.1579    0.4184 C.ar      1 <0>        -0.0336
     33 C19        -3.4375   -2.6080    0.3249 C.ar      1 <0>        -0.0336
     34 C20         3.7141   -3.7694   -2.7824 C.ar      1 <0>        -0.0615
     35 C21         4.1269   -3.7413   -0.4022 C.ar      1 <0>        -0.0615
     36 C22        -5.8677   -1.8927    1.4934 C.ar      1 <0>        -0.0392
     37 C23        -3.9376   -3.3429    1.4001 C.ar      1 <0>        -0.0392
     38 C24         4.5051   -4.1232   -1.6894 C.ar      1 <0>        -0.0617
     39 C25        -5.1527   -2.9853    1.9841 C.ar      1 <0>         0.0247
     40 H1         -0.6170    0.1352   -2.3442 H         1 <0>         0.0634
     41 H2          1.7985   -0.1304   -1.9668 H         1 <0>         0.0529
     42 H3         -0.9382    0.8261    0.6176 H         1 <0>         0.0470
     43 H4         -1.2545   -0.7895    0.0566 H         1 <0>         0.0470
     44 H5         -4.3155    1.6500   -0.0986 H         1 <0>         0.0446
     45 H6         -3.2449    1.1158    1.1993 H         1 <0>         0.0446
     46 H7          0.4537   -2.1622   -0.1377 H         1 <0>         0.0332
     47 H8          0.1833   -2.1546   -1.8652 H         1 <0>         0.0332
     48 H9         -1.5711    2.8583    0.4619 H         1 <0>         0.0308
     49 H10         1.2589   -0.0466    0.9611 H         1 <0>         0.1524
     50 H11         4.8582    2.2181    0.7801 H         1 <0>         0.0758
     51 H12        -2.2249    2.9840   -1.9563 H         1 <0>         0.0233
     52 H13        -2.1456    4.5633   -1.1701 H         1 <0>         0.0233
     53 H14        -3.7139    3.8041   -1.4829 H         1 <0>         0.0233
     54 H15        -3.1589    3.4114    2.2500 H         1 <0>         0.0233
     55 H16        -2.7602    4.8306    1.2701 H         1 <0>         0.0233
     56 H17        -4.3200    4.0157    1.0547 H         1 <0>         0.0233
     57 H18         3.6561    2.9339    3.0933 H         1 <0>         0.0324
     58 H19         5.4271    3.0618    2.9363 H         1 <0>         0.0324
     59 H20         6.6217    0.8544    1.6833 H         1 <0>         0.0597
     60 H21         5.4241   -0.4335    1.3879 H         1 <0>         0.0597
     61 H22         5.2972    1.6511    4.8469 H         1 <0>         0.0561
     62 H23         3.8289    0.8412    4.2597 H         1 <0>         0.0561
     63 H24         1.9388   -2.7615   -3.4482 H         1 <0>         0.0620
     64 H25         2.6747   -2.7154    0.8004 H         1 <0>         0.0620
     65 H26        -5.9408   -0.3102    0.0542 H         1 <0>         0.0638
     66 H27        -2.4895   -2.9053   -0.1143 H         1 <0>         0.0638
     67 H28         4.0091   -4.0659   -3.7847 H         1 <0>         0.0618
     68 H29         4.7430   -4.0163    0.4490 H         1 <0>         0.0618
     69 H30        -6.8155   -1.6039    1.9404 H         1 <0>         0.0636
     70 H31        -3.3710   -4.1922    1.7734 H         1 <0>         0.0636
     71 H32         5.4155   -4.6956   -1.8405 H         1 <0>         0.0618
     72 H33        -0.2513    2.3144   -4.8871 H         1 <0>         0.2220
     73 H34         1.2022    4.5441   -3.3846 H         1 <0>         0.2220
     74 H35        -5.1403   -4.5204    3.4275 H         1 <0>         0.1423
     75 H36        -6.5391   -3.4693    3.4952 H         1 <0>         0.1423
@<TRIPOS>BOND
     1    1    6 2
     2    1    7 2
     3    1   12 1
     4    1   23 1
     5    2    3 1
     6    2    8 1
     7    2    9 1
     8    2   11 2
     9    3   15 1
    10    4   22 1
    11    4   27 1
    12    5   28 1
    13    5   29 1
    14    8   72 1
    15    9   73 1
    16   10   27 2
    17   12   17 1
    18   12   18 1
    19   13   16 1
    20   13   27 am
    21   13   49 1
    22   14   39 1
    23   14   74 1
    24   14   75 1
    25   15   16 1
    26   15   17 1
    27   15   40 1
    28   16   19 1
    29   16   41 1
    30   17   42 1
    31   17   43 1
    32   18   20 1
    33   18   44 1
    34   18   45 1
    35   19   21 1
    36   19   46 1
    37   19   47 1
    38   20   24 1
    39   20   25 1
    40   20   48 1
    41   21   30 ar
    42   21   31 ar
    43   22   26 1
    44   22   28 1
    45   22   50 1
    46   23   32 ar
    47   23   33 ar
    48   24   51 1
    49   24   52 1
    50   24   53 1
    51   25   54 1
    52   25   55 1
    53   25   56 1
    54   26   29 1
    55   26   57 1
    56   26   58 1
    57   28   59 1
    58   28   60 1
    59   29   61 1
    60   29   62 1
    61   30   34 ar
    62   30   63 1
    63   31   35 ar
    64   31   64 1
    65   32   36 ar
    66   32   65 1
    67   33   37 ar
    68   33   66 1
    69   34   38 ar
    70   34   67 1
    71   35   38 ar
    72   35   68 1
    73   36   39 ar
    74   36   69 1
    75   37   39 ar
    76   37   70 1
    77   38   71 1
