@<TRIPOS>MOLECULE
DB01091
   51    53     0     0     0
SMALL
USER_CHARGES

@<TRIPOS>ATOM
      1 N1          1.2217    0.9118    0.6438 N.3       1 <0>        -0.2970
      2 C1         -4.9528   -0.5624   -0.4161 C.3       1 <0>        -0.0127
      3 C2         -3.6334   -0.1059    0.1073 C.ar      1 <0>        -0.0420
      4 C3         -5.4232   -1.8684    0.2962 C.3       1 <0>        -0.0560
      5 C4         -4.8825   -0.8605   -1.9462 C.3       1 <0>        -0.0560
      6 C5         -6.1314    0.4527   -0.2442 C.3       1 <0>        -0.0560
      7 C6          0.1549    1.2041    1.6102 C.3       1 <0>         0.0241
      8 C7         -1.1755    0.7441    1.0819 C.ar      1 <0>        -0.0333
      9 C8         -2.5168   -0.9355    0.0027 C.ar      1 <0>        -0.0578
     10 C9         -3.5155    1.1504    0.7015 C.ar      1 <0>        -0.0578
     11 C10         2.5159    1.2791    1.1704 C.3       1 <0>         0.0247
     12 C11        -1.2823   -0.5086    0.4922 C.ar      1 <0>        -0.0571
     13 C12        -2.2811    1.5774    1.1910 C.ar      1 <0>        -0.0571
     14 C13         3.6026    0.9221    0.2038 C.ar      1 <0>        -0.0257
     15 C14         4.2414   -0.3285    0.2302 C.ar      1 <0>        -0.0135
     16 C15         0.9491    1.6061   -0.6215 C.3       1 <0>        -0.0121
     17 C16         5.2615   -0.6044   -0.7112 C.ar      1 <0>        -0.0176
     18 C17         3.9646    1.8868   -0.7369 C.ar      1 <0>        -0.0567
     19 C18         3.8900   -1.3112    1.1700 C.ar      1 <0>        -0.0537
     20 C19         5.6128    0.3782   -1.6512 C.ar      1 <0>        -0.0540
     21 C20         4.9676    1.6153   -1.6629 C.ar      1 <0>        -0.0609
     22 C21         5.9003   -1.8548   -0.6850 C.ar      1 <0>        -0.0540
     23 C22         4.5354   -2.5480    1.1816 C.ar      1 <0>        -0.0612
     24 C23         5.5388   -2.8193    0.2559 C.ar      1 <0>        -0.0612
     25 H1         -6.4064   -2.1891   -0.0675 H         1 <0>         0.0238
     26 H2         -4.7296   -2.6994    0.1270 H         1 <0>         0.0238
     27 H3         -5.4984   -1.7156    1.3793 H         1 <0>         0.0238
     28 H4         -4.1746   -1.6650   -2.1742 H         1 <0>         0.0238
     29 H5         -5.8589   -1.1688   -2.3378 H         1 <0>         0.0238
     30 H6         -4.5625    0.0289   -2.5016 H         1 <0>         0.0238
     31 H7         -6.3157    0.6790    0.8126 H         1 <0>         0.0238
     32 H8         -5.9327    1.3922   -0.7732 H         1 <0>         0.0238
     33 H9         -7.0650    0.0467   -0.6522 H         1 <0>         0.0238
     34 H10         0.1310    2.2772    1.8433 H         1 <0>         0.0476
     35 H11         0.3401    0.6706    2.5513 H         1 <0>         0.0476
     36 H12         2.6986    0.8294    2.1526 H         1 <0>         0.0476
     37 H13         2.5601    2.3598    1.3750 H         1 <0>         0.0476
     38 H14        -2.5810   -1.9197   -0.4522 H         1 <0>         0.0621
     39 H15        -4.3498    1.8347    0.8091 H         1 <0>         0.0621
     40 H16        -0.4301   -1.1779    0.4144 H         1 <0>         0.0621
     41 H17        -2.2018    2.5576    1.6527 H         1 <0>         0.0621
     42 H18         1.0658    2.6929   -0.5317 H         1 <0>         0.0391
     43 H19        -0.0590    1.4306   -1.0105 H         1 <0>         0.0391
     44 H20         1.5848    1.2350   -1.4314 H         1 <0>         0.0391
     45 H21         3.4926    2.8656   -0.7545 H         1 <0>         0.0621
     46 H22         3.1048   -1.1684    1.9056 H         1 <0>         0.0624
     47 H23         6.3947    0.1881   -2.3836 H         1 <0>         0.0624
     48 H24         5.2521    2.3680   -2.3923 H         1 <0>         0.0618
     49 H25         6.6869   -2.0888   -1.3993 H         1 <0>         0.0624
     50 H26         4.2519   -3.3015    1.9108 H         1 <0>         0.0618
     51 H27         6.0400   -3.7829    0.2649 H         1 <0>         0.0618
@<TRIPOS>BOND
     1    1    7 1
     2    1   11 1
     3    1   16 1
     4    2    3 1
     5    2    4 1
     6    2    5 1
     7    2    6 1
     8    3    9 ar
     9    3   10 ar
    10    4   25 1
    11    4   26 1
    12    4   27 1
    13    5   28 1
    14    5   29 1
    15    5   30 1
    16    6   31 1
    17    6   32 1
    18    6   33 1
    19    7    8 1
    20    7   34 1
    21    7   35 1
    22    8   12 ar
    23    8   13 ar
    24    9   12 ar
    25    9   38 1
    26   10   13 ar
    27   10   39 1
    28   11   14 1
    29   11   36 1
    30   11   37 1
    31   12   40 1
    32   13   41 1
    33   14   15 ar
    34   14   18 ar
    35   15   17 ar
    36   15   19 ar
    37   16   42 1
    38   16   43 1
    39   16   44 1
    40   17   20 ar
    41   17   22 ar
    42   18   21 ar
    43   18   45 1
    44   19   23 ar
    45   19   46 1
    46   20   21 ar
    47   20   47 1
    48   21   48 1
    49   22   24 ar
    50   22   49 1
    51   23   24 ar
    52   23   50 1
    53   24   51 1
