@<TRIPOS>MOLECULE
DB01415
   41    43     0     0     0
SMALL
USER_CHARGES

@<TRIPOS>ATOM
      1 S1          1.7005   -1.6065   -1.7649 S.3       1 <0>        -0.1314
      2 S2         -5.1407   -2.2746    0.3936 S.3       1 <0>        -0.0605
      3 O1          2.0111    0.2903    2.4976 O.2       1 <0>        -0.2731
      4 O2          4.6725    0.3751    2.0417 O.3       1 <0>        -0.4763
      5 O3         -1.1209   -0.0061    2.4556 O.2       1 <0>        -0.2701
      6 O4          5.4559    1.4726    0.1946 O.2       1 <0>        -0.2437
      7 O5          0.8463    3.4428   -0.9072 O.3       1 <0>        -0.4804
      8 O6         -0.3886    1.8520   -1.9549 O.2       1 <0>        -0.2507
      9 N1          2.7660   -0.7654    0.5335 N.am      1 <0>        -0.2492
     10 N2         -0.2891   -0.7661    0.4275 N.am      1 <0>        -0.2977
     11 N3         -4.6427    0.1802   -0.2454 N.2       1 <0>        -0.2250
     12 N4         -6.8134   -0.5806   -0.7930 N.pl3     1 <0>        -0.3375
     13 C1          2.0037   -1.8823    0.0007 C.3       1 <0>         0.1042
     14 C2          0.8929   -1.4547    0.9773 C.3       1 <0>         0.1286
     15 C3          1.9481   -0.4772    1.5663 C.2       1 <0>         0.2440
     16 C4          3.9226   -0.3316   -0.0153 C.2       1 <0>         0.1188
     17 C5          3.4789   -1.5469   -2.1958 C.3       1 <0>         0.0159
     18 C6          4.2979   -0.6960   -1.2540 C.2       1 <0>        -0.0457
     19 C7         -1.1977   -0.0967    1.2322 C.2       1 <0>         0.2465
     20 C8          4.7705    0.6110    0.7162 C.2       1 <0>         0.3511
     21 C9         -2.3684    0.4858    0.4938 C.2       1 <0>         0.0592
     22 C10        -3.5284   -0.3516    0.3447 C.2       1 <0>         0.0849
     23 C11        -2.2763    1.7710    0.0969 C.2       1 <0>        -0.0593
     24 C12        -1.0805    2.6690    0.2389 C.3       1 <0>         0.0640
     25 C13        -3.5858   -1.6499    0.7587 C.2       1 <0>         0.0050
     26 C14        -5.5681   -0.7529   -0.2745 C.2       1 <0>         0.1561
     27 C15        -0.2059    2.5858   -0.9933 C.2       1 <0>         0.3085
     28 H1          2.4530   -2.8538    0.2399 H         1 <0>         0.0644
     29 H2          0.6016   -2.2466    1.6769 H         1 <0>         0.0622
     30 H3         -0.4624   -0.7908   -0.5748 H         1 <0>         0.1499
     31 H4          3.5515   -1.1336   -3.2068 H         1 <0>         0.0420
     32 H5          3.8824   -2.5641   -2.2187 H         1 <0>         0.0420
     33 H6          5.2401   -0.3369   -1.6634 H         1 <0>         0.0601
     34 H7         -3.1230    2.2285   -0.4127 H         1 <0>         0.0585
     35 H8          5.2279    0.9892    2.5675 H         1 <0>         0.2954
     36 H9         -0.4778    2.4121    1.1153 H         1 <0>         0.0421
     37 H10        -1.4272    3.7015    0.3561 H         1 <0>         0.0421
     38 H11        -2.8435   -2.2703    1.2411 H         1 <0>         0.0716
     39 H12        -7.1063    0.3029   -1.1972 H         1 <0>         0.1442
     40 H13        -7.4995   -1.3282   -0.7955 H         1 <0>         0.1442
     41 H14         1.4227    3.3936   -1.6996 H         1 <0>         0.2951
@<TRIPOS>BOND
     1    1   13 1
     2    1   17 1
     3    2   25 1
     4    2   26 1
     5    3   15 2
     6    4   20 1
     7    4   35 1
     8    5   19 2
     9    6   20 2
    10    7   27 1
    11    7   41 1
    12    8   27 2
    13    9   13 1
    14    9   15 am
    15    9   16 1
    16   10   14 1
    17   10   19 am
    18   10   30 1
    19   11   22 1
    20   11   26 2
    21   12   26 1
    22   12   39 1
    23   12   40 1
    24   13   14 1
    25   13   28 1
    26   14   15 1
    27   14   29 1
    28   16   18 2
    29   16   20 1
    30   17   18 1
    31   17   31 1
    32   17   32 1
    33   18   33 1
    34   19   21 1
    35   21   22 1
    36   21   23 2
    37   22   25 2
    38   23   24 1
    39   23   34 1
    40   24   27 1
    41   24   36 1
    42   24   37 1
    43   25   38 1
