@<TRIPOS>MOLECULE
DB01208
   50    53     0     0     0
SMALL
USER_CHARGES

@<TRIPOS>ATOM
      1 F1         -0.3557   -1.7727    1.0056 F         1 <0>        -0.2013
      2 F2          1.5352    2.4044   -0.0899 F         1 <0>        -0.2015
      3 O1         -3.4752    3.0973   -0.5950 O.2       1 <0>        -0.2862
      4 O2         -5.8973    2.4296   -1.2160 O.3       1 <0>        -0.4770
      5 O3         -6.8151    1.0103    0.3249 O.2       1 <0>        -0.2449
      6 N1         -3.0074   -0.7853    0.5555 N.pl3     1 <0>        -0.3403
      7 N2          1.8513   -0.2173    0.6868 N.pl3     1 <0>        -0.3224
      8 N3          4.4284   -0.0853   -0.4966 N.3       1 <0>        -0.3081
      9 N4         -0.8943    3.5182   -0.5627 N.pl3     1 <0>        -0.3551
     10 C1         -2.9596   -2.2043    0.9703 C.3       1 <0>         0.0348
     11 C2         -2.1253   -3.1911    0.2233 C.3       1 <0>        -0.0302
     12 C3         -3.6226   -3.2630    0.1531 C.3       1 <0>        -0.0302
     13 C4         -1.8339    0.0061    0.3983 C.ar      1 <0>         0.0925
     14 C5          3.3481   -0.8496   -1.1396 C.3       1 <0>         0.0208
     15 C6          3.9056    1.0484    0.2820 C.3       1 <0>         0.0208
     16 C7          2.3386   -1.3599   -0.0937 C.3       1 <0>         0.0275
     17 C8          2.9137    0.5484    1.3429 C.3       1 <0>         0.0275
     18 C9          0.5849    0.3078    0.4590 C.ar      1 <0>         0.1050
     19 C10        -4.2463   -0.2227    0.3166 C.2       1 <0>         0.0232
     20 C11        -1.9529    1.3553    0.0002 C.ar      1 <0>         0.0723
     21 C12        -0.5436   -0.5002    0.6241 C.ar      1 <0>         0.1713
     22 C13        -0.8217    2.1640   -0.1647 C.ar      1 <0>         0.0752
     23 C14        -4.4701    1.0414   -0.0631 C.2       1 <0>         0.1221
     24 C15         0.4459    1.6359    0.0658 C.ar      1 <0>         0.1684
     25 C16        -3.2988    1.9354   -0.2499 C.2       1 <0>         0.2053
     26 C17         3.9565   -2.0174   -1.9127 C.3       1 <0>        -0.0482
     27 C18         5.0711    1.7832    0.9397 C.3       1 <0>        -0.0482
     28 C19        -5.8557    1.4663   -0.2714 C.2       1 <0>         0.3420
     29 H1         -3.0044   -2.3119    2.0494 H         1 <0>         0.0528
     30 H2         -1.6178   -3.9637    0.7884 H         1 <0>         0.0286
     31 H3         -1.6254   -2.9066   -0.6952 H         1 <0>         0.0286
     32 H4         -4.0884   -2.9943   -0.7871 H         1 <0>         0.0286
     33 H5         -4.1139   -4.0730    0.6782 H         1 <0>         0.0286
     34 H6          2.8344   -0.1964   -1.8567 H         1 <0>         0.0473
     35 H7          3.4532    1.7405   -0.4297 H         1 <0>         0.0473
     36 H8          1.5229   -1.8928   -0.5968 H         1 <0>         0.0479
     37 H9          2.8151   -2.0784    0.5858 H         1 <0>         0.0479
     38 H10         3.4244   -0.1071    2.0613 H         1 <0>         0.0479
     39 H11         2.5095    1.3812    1.9315 H         1 <0>         0.0479
     40 H12        -5.0684   -0.9148    0.4732 H         1 <0>         0.0819
     41 H13         4.9557   -0.7032    0.1210 H         1 <0>         0.1225
     42 H14         4.6636   -1.6602   -2.6696 H         1 <0>         0.0245
     43 H15         4.4903   -2.7072   -1.2493 H         1 <0>         0.0245
     44 H16         3.1755   -2.5854   -2.4297 H         1 <0>         0.0245
     45 H17         4.7111    2.6572    1.4931 H         1 <0>         0.0245
     46 H18         5.6114    1.1385    1.6421 H         1 <0>         0.0245
     47 H19         5.7862    2.1368    0.1887 H         1 <0>         0.0245
     48 H20        -1.7838    3.9608   -0.7429 H         1 <0>         0.1424
     49 H21        -0.0428    4.0555   -0.6642 H         1 <0>         0.1424
     50 H22        -6.8121    2.7414   -1.3844 H         1 <0>         0.2954
@<TRIPOS>BOND
     1    1   21 1
     2    2   24 1
     3    3   25 2
     4    4   28 1
     5    4   50 1
     6    5   28 2
     7    6   10 1
     8    6   13 1
     9    6   19 2
    10    7   16 1
    11    7   17 1
    12    7   18 1
    13    8   14 1
    14    8   15 1
    15    8   41 1
    16    9   22 1
    17    9   48 1
    18    9   49 1
    19   10   11 1
    20   10   12 1
    21   10   29 1
    22   11   12 1
    23   11   30 1
    24   11   31 1
    25   12   32 1
    26   12   33 1
    27   13   20 ar
    28   13   21 ar
    29   14   16 1
    30   14   26 1
    31   14   34 1
    32   15   17 1
    33   15   27 1
    34   15   35 1
    35   16   36 1
    36   16   37 1
    37   17   38 1
    38   17   39 1
    39   18   21 ar
    40   18   24 ar
    41   19   23 1
    42   19   40 1
    43   20   22 ar
    44   20   25 1
    45   22   24 ar
    46   23   25 1
    47   23   28 1
    48   26   42 1
    49   26   43 1
    50   26   44 1
    51   27   45 1
    52   27   46 1
    53   27   47 1
