@<TRIPOS>MOLECULE
DB01114
   38    39     0     0     0
SMALL
USER_CHARGES

@<TRIPOS>ATOM
      1 Cl1        -6.2077    1.3884    0.3543 Cl        1 <0>        -0.0835
      2 N1          2.4946    1.0644    0.2531 N.3       1 <0>        -0.3083
      3 N2         -0.5547   -1.9338   -1.1064 N.ar      1 <0>        -0.2593
      4 C1         -0.3372    0.1709    0.0715 C.3       1 <0>         0.0275
      5 C2          0.4013    0.9823   -1.0252 C.3       1 <0>        -0.0279
      6 C3          1.9108    0.7150   -1.0376 C.3       1 <0>        -0.0008
      7 C4         -1.8295    0.4807    0.1439 C.ar      1 <0>        -0.0384
      8 C5         -0.0888   -1.3301   -0.0066 C.ar      1 <0>         0.0487
      9 C6         -2.4722    0.3693    1.3578 C.ar      1 <0>        -0.0566
     10 C7         -2.4838    0.8617   -1.0075 C.ar      1 <0>        -0.0566
     11 C8          0.5763   -1.9316    1.0303 C.ar      1 <0>        -0.0398
     12 C9          2.3120    2.4895    0.5317 C.3       1 <0>        -0.0130
     13 C10         3.9163    0.7183    0.2854 C.3       1 <0>        -0.0130
     14 C11        -3.8364    0.6527    1.4235 C.ar      1 <0>        -0.0431
     15 C12        -3.8479    1.1452   -0.9417 C.ar      1 <0>        -0.0431
     16 C13         0.7869   -3.3021    0.9282 C.ar      1 <0>        -0.0586
     17 C14        -4.5243    1.0406    0.2737 C.ar      1 <0>         0.0410
     18 C15        -0.3315   -3.2655   -1.1704 C.ar      1 <0>         0.0279
     19 C16         0.3276   -3.9893   -0.1898 C.ar      1 <0>        -0.0436
     20 H1          0.0658    0.5329    1.0288 H         1 <0>         0.0413
     21 H2          0.0518    0.6762   -2.0198 H         1 <0>         0.0287
     22 H3          0.1735    2.0519   -0.9494 H         1 <0>         0.0287
     23 H4          2.3702    1.2937   -1.8499 H         1 <0>         0.0427
     24 H5          2.0970   -0.3407   -1.2688 H         1 <0>         0.0427
     25 H6         -1.9450    0.0674    2.2577 H         1 <0>         0.0621
     26 H7         -2.0052    0.9364   -1.9760 H         1 <0>         0.0621
     27 H8          0.9305   -1.3879    1.8982 H         1 <0>         0.0636
     28 H9          1.2678    2.7412    0.7390 H         1 <0>         0.0391
     29 H10         2.6785    3.1251   -0.2828 H         1 <0>         0.0391
     30 H11         2.8561    2.7703    1.4418 H         1 <0>         0.0391
     31 H12         4.0548   -0.3550    0.1130 H         1 <0>         0.0391
     32 H13         4.3433    0.9329    1.2714 H         1 <0>         0.0391
     33 H14         4.4929    1.2668   -0.4683 H         1 <0>         0.0391
     34 H15        -4.3505    0.5665    2.3773 H         1 <0>         0.0632
     35 H16        -4.3727    1.4418   -1.8464 H         1 <0>         0.0632
     36 H17         1.3082   -3.8339    1.7187 H         1 <0>         0.0619
     37 H18        -0.7094   -3.7545   -2.0622 H         1 <0>         0.0829
     38 H19         0.4806   -5.0577   -0.2904 H         1 <0>         0.0633
@<TRIPOS>BOND
     1    1   17 1
     2    2    6 1
     3    2   12 1
     4    2   13 1
     5    3    8 ar
     6    3   18 ar
     7    4    5 1
     8    4    7 1
     9    4    8 1
    10    4   20 1
    11    5    6 1
    12    5   21 1
    13    5   22 1
    14    6   23 1
    15    6   24 1
    16    7    9 ar
    17    7   10 ar
    18    8   11 ar
    19    9   14 ar
    20    9   25 1
    21   10   15 ar
    22   10   26 1
    23   11   16 ar
    24   11   27 1
    25   12   28 1
    26   12   29 1
    27   12   30 1
    28   13   31 1
    29   13   32 1
    30   13   33 1
    31   14   17 ar
    32   14   34 1
    33   15   17 ar
    34   15   35 1
    35   16   19 ar
    36   16   36 1
    37   18   19 ar
    38   18   37 1
    39   19   38 1
