@<TRIPOS>MOLECULE
DB01588
   40    43     0     0     0
SMALL
USER_CHARGES

@<TRIPOS>ATOM
      1 Cl1        -1.1024    4.7808   -0.9623 Cl        1 <0>        -0.0835
      2 O1          2.0056   -1.8444    2.4961 O.2       1 <0>        -0.2732
      3 N1          1.8203   -0.0550    1.0148 N.am      1 <0>        -0.2690
      4 N2         -0.9377   -0.6498    2.1378 N.2       1 <0>        -0.2734
      5 C1          2.9114   -0.7285   -1.0860 C.3       1 <0>        -0.0248
      6 C2          2.0484   -1.8890   -1.4251 C.3       1 <0>        -0.0485
      7 C3          3.5371   -1.9774   -1.5921 C.3       1 <0>        -0.0485
      8 C4          3.0963   -0.3771    0.3758 C.3       1 <0>         0.0227
      9 C5          1.0780    1.0692    0.5129 C.ar      1 <0>         0.0456
     10 C6          1.4258   -0.8235    2.1162 C.2       1 <0>         0.2412
     11 C7         -0.3277    1.1593    0.5865 C.ar      1 <0>         0.0233
     12 C8          0.2448   -0.3089    2.9001 C.3       1 <0>         0.1170
     13 C9          1.7680    2.1357   -0.0969 C.ar      1 <0>        -0.0383
     14 C10        -1.1808    0.0332    1.0705 C.2       1 <0>         0.0750
     15 C11        -0.9932    2.3139    0.1356 C.ar      1 <0>        -0.0324
     16 C12         1.0979    3.2708   -0.5606 C.ar      1 <0>        -0.0416
     17 C13        -2.3835   -0.3529    0.2772 C.ar      1 <0>         0.0006
     18 C14        -0.2808    3.3650   -0.4331 C.ar      1 <0>         0.0417
     19 C15        -2.3853   -0.1688   -1.0999 C.ar      1 <0>        -0.0526
     20 C16        -3.4887   -0.8918    0.9240 C.ar      1 <0>        -0.0526
     21 C17        -3.5101   -0.5295   -1.8420 C.ar      1 <0>        -0.0611
     22 C18        -4.6135   -1.2523    0.1820 C.ar      1 <0>        -0.0611
     23 C19        -4.6241   -1.0711   -1.2010 C.ar      1 <0>        -0.0617
     24 H1          2.9006    0.1292   -1.7450 H         1 <0>         0.0316
     25 H2          1.4427   -1.8230   -2.3208 H         1 <0>         0.0269
     26 H3          1.6008   -2.4712   -0.6292 H         1 <0>         0.0269
     27 H4          4.0820   -2.6158   -0.9079 H         1 <0>         0.0269
     28 H5          3.9305   -1.9732   -2.6014 H         1 <0>         0.0269
     29 H6          3.8026    0.4504    0.4993 H         1 <0>         0.0471
     30 H7          3.5670   -1.2190    0.8967 H         1 <0>         0.0471
     31 H8          0.2119   -0.8301    3.8633 H         1 <0>         0.0605
     32 H9          0.3346    0.7584    3.1302 H         1 <0>         0.0605
     33 H10         2.8493    2.1459   -0.1919 H         1 <0>         0.0637
     34 H11        -2.0738    2.3997    0.2330 H         1 <0>         0.0639
     35 H12         1.6732    4.0800   -1.0034 H         1 <0>         0.0633
     36 H13        -1.5236    0.2168   -1.6368 H         1 <0>         0.0624
     37 H14        -3.5071   -1.0339    2.0010 H         1 <0>         0.0624
     38 H15        -3.5155   -0.3960   -2.9198 H         1 <0>         0.0618
     39 H16        -5.4818   -1.6725    0.6811 H         1 <0>         0.0618
     40 H17        -5.4993   -1.3533   -1.7789 H         1 <0>         0.0618
@<TRIPOS>BOND
     1    1   18 1
     2    2   10 2
     3    3    8 1
     4    3    9 1
     5    3   10 am
     6    4   12 1
     7    4   14 2
     8    5    6 1
     9    5    7 1
    10    5    8 1
    11    5   24 1
    12    6    7 1
    13    6   25 1
    14    6   26 1
    15    7   27 1
    16    7   28 1
    17    8   29 1
    18    8   30 1
    19    9   11 ar
    20    9   13 ar
    21   10   12 1
    22   11   14 1
    23   11   15 ar
    24   12   31 1
    25   12   32 1
    26   13   16 ar
    27   13   33 1
    28   14   17 1
    29   15   18 ar
    30   15   34 1
    31   16   18 ar
    32   16   35 1
    33   17   19 ar
    34   17   20 ar
    35   19   21 ar
    36   19   36 1
    37   20   22 ar
    38   20   37 1
    39   21   23 ar
    40   21   38 1
    41   22   23 ar
    42   22   39 1
    43   23   40 1
