@<TRIPOS>MOLECULE
DB01062
   57    58     0     0     0
SMALL
USER_CHARGES

@<TRIPOS>ATOM
      1 O1          4.0211   -0.3732    1.4109 O.3       1 <0>        -0.3730
      2 O2          0.5014   -1.0454    1.6149 O.3       1 <0>        -0.4495
      3 O3          2.1170   -0.7559    3.2328 O.2       1 <0>        -0.2471
      4 N1         -4.3137   -0.1789   -0.0944 N.3       1 <0>        -0.2921
      5 C1          2.3314    0.8021    0.2234 C.3       1 <0>         0.0026
      6 C2          3.3150    1.1477   -0.9026 C.3       1 <0>        -0.0467
      7 C3          2.2851    1.9222    1.2714 C.3       1 <0>        -0.0467
      8 C4          2.7018   -0.5297    0.8733 C.3       1 <0>         0.1902
      9 C5          2.9971    2.5016   -1.5331 C.3       1 <0>        -0.0527
     10 C6          1.9686    3.2748    0.6372 C.3       1 <0>        -0.0527
     11 C7          2.9432    3.6109   -0.4873 C.3       1 <0>        -0.0530
     12 C8          2.7478   -1.7465   -0.0464 C.ar      1 <0>        -0.0051
     13 C9          1.7670   -0.7820    2.0590 C.2       1 <0>         0.3449
     14 C10         3.6940   -2.7203    0.1891 C.ar      1 <0>        -0.0553
     15 C11         1.8418   -1.8300   -1.0813 C.ar      1 <0>        -0.0553
     16 C12         3.7361   -3.8323   -0.6520 C.ar      1 <0>        -0.0614
     17 C13         1.8837   -2.9420   -1.9221 C.ar      1 <0>        -0.0614
     18 C14         2.8308   -3.9431   -1.7076 C.ar      1 <0>        -0.0617
     19 C15        -0.4685   -1.3080    2.6336 C.3       1 <0>         0.1529
     20 C16        -1.7899   -0.8774    2.1788 C.1       1 <0>        -0.0601
     21 C17        -4.2033   -0.0946    1.3564 C.3       1 <0>         0.0610
     22 C18        -3.3147    0.6761   -0.7385 C.3       1 <0>        -0.0031
     23 C19        -5.6599    0.1957   -0.5322 C.3       1 <0>        -0.0031
     24 C20        -2.8761   -0.5252    1.8061 C.1       1 <0>        -0.0833
     25 C21        -3.4190    0.5977   -2.2522 C.3       1 <0>        -0.0523
     26 C22        -6.7090   -0.7220    0.0723 C.3       1 <0>        -0.0523
     27 H1          1.3238    0.7495   -0.2099 H         1 <0>         0.0337
     28 H2          3.3047    0.3942   -1.6962 H         1 <0>         0.0269
     29 H3          4.3435    1.1944   -0.5251 H         1 <0>         0.0269
     30 H4          3.2439    2.0010    1.7990 H         1 <0>         0.0269
     31 H5          1.5181    1.7278    2.0291 H         1 <0>         0.0269
     32 H6          3.7541    2.7444   -2.2877 H         1 <0>         0.0265
     33 H7          2.0338    2.4437   -2.0547 H         1 <0>         0.0265
     34 H8          0.9454    3.2623    0.2419 H         1 <0>         0.0265
     35 H9          2.0052    4.0586    1.4023 H         1 <0>         0.0265
     36 H10         3.9448    3.7658   -0.0677 H         1 <0>         0.0265
     37 H11         2.6470    4.5524   -0.9631 H         1 <0>         0.0265
     38 H12         4.6809   -0.4763    0.7047 H         1 <0>         0.2113
     39 H13         4.3954   -2.6814    1.0162 H         1 <0>         0.0621
     40 H14         1.0806   -1.0808   -1.2657 H         1 <0>         0.0621
     41 H15         4.4690   -4.6155   -0.4813 H         1 <0>         0.0618
     42 H16         1.1760   -3.0310   -2.7411 H         1 <0>         0.0618
     43 H17         2.8620   -4.8103   -2.3608 H         1 <0>         0.0618
     44 H18        -0.4688   -2.3851    2.8306 H         1 <0>         0.0838
     45 H19        -0.2273   -0.7844    3.5656 H         1 <0>         0.0838
     46 H20        -4.4065    0.9221    1.7163 H         1 <0>         0.0563
     47 H21        -4.9157   -0.7620    1.8524 H         1 <0>         0.0563
     48 H22        -2.3001    0.3490   -0.4847 H         1 <0>         0.0424
     49 H23        -3.4089    1.7229   -0.4215 H         1 <0>         0.0424
     50 H24        -5.7664    0.0757   -1.6149 H         1 <0>         0.0424
     51 H25        -5.8948    1.2398   -0.2899 H         1 <0>         0.0424
     52 H26        -3.4815   -0.4378   -2.6040 H         1 <0>         0.0242
     53 H27        -4.2694    1.1633   -2.6453 H         1 <0>         0.0242
     54 H28        -2.5218    1.0384   -2.7020 H         1 <0>         0.0242
     55 H29        -6.4355   -1.7776   -0.0328 H         1 <0>         0.0242
     56 H30        -6.8966   -0.5056    1.1284 H         1 <0>         0.0242
     57 H31        -7.6634   -0.5799   -0.4475 H         1 <0>         0.0242
@<TRIPOS>BOND
     1    1    8 1
     2    1   38 1
     3    2   13 1
     4    2   19 1
     5    3   13 2
     6    4   21 1
     7    4   22 1
     8    4   23 1
     9    5    6 1
    10    5    7 1
    11    5    8 1
    12    5   27 1
    13    6    9 1
    14    6   28 1
    15    6   29 1
    16    7   10 1
    17    7   30 1
    18    7   31 1
    19    8   12 1
    20    8   13 1
    21    9   11 1
    22    9   32 1
    23    9   33 1
    24   10   11 1
    25   10   34 1
    26   10   35 1
    27   11   36 1
    28   11   37 1
    29   12   14 ar
    30   12   15 ar
    31   14   16 ar
    32   14   39 1
    33   15   17 ar
    34   15   40 1
    35   16   18 ar
    36   16   41 1
    37   17   18 ar
    38   17   42 1
    39   18   43 1
    40   19   20 1
    41   19   44 1
    42   19   45 1
    43   20   24 3
    44   21   24 1
    45   21   46 1
    46   21   47 1
    47   22   25 1
    48   22   48 1
    49   22   49 1
    50   23   26 1
    51   23   50 1
    52   23   51 1
    53   25   52 1
    54   25   53 1
    55   25   54 1
    56   26   55 1
    57   26   56 1
    58   26   57 1
