@<TRIPOS>MOLECULE
DB01196
   60    63     0     0     0
SMALL
USER_CHARGES

@<TRIPOS>ATOM
      1 Cl1        -7.7395    2.8263    1.6596 Cl        1 <0>        -0.1238
      2 Cl2        -8.0351   -2.9397   -2.3673 Cl        1 <0>        -0.1238
      3 O1          6.8945   -1.5720   -0.2826 O.3       1 <0>        -0.3912
      4 O2         -3.8543    0.3062    0.8102 O.3       1 <0>        -0.4114
      5 O3         -3.8358   -0.9371   -1.1411 O.2       1 <0>        -0.2258
      6 N1         -5.8740   -0.2041   -0.2936 N.am      1 <0>        -0.2649
      7 C1          4.5721   -0.7815   -0.0317 C.3       1 <0>        -0.0030
      8 C2          4.0314    0.6595    0.0610 C.3       1 <0>        -0.0298
      9 C3          2.5162    0.7205   -0.1294 C.3       1 <0>        -0.0305
     10 C4          1.8371   -0.1047    1.0056 C.3       1 <0>        -0.0125
     11 C5          6.0771   -0.4932    0.1286 C.3       1 <0>         0.0609
     12 C6          3.9474   -1.5997    1.1050 C.3       1 <0>        -0.0445
     13 C7          4.9363    1.4404   -0.8876 C.3       1 <0>        -0.0470
     14 C8          2.4078   -1.5470    1.0701 C.3       1 <0>        -0.0454
     15 C9          6.3101    0.7621   -0.7346 C.3       1 <0>        -0.0261
     16 C10         1.9765    2.1516   -0.0949 C.3       1 <0>        -0.0454
     17 C11         4.3007   -1.4919   -1.3825 C.3       1 <0>        -0.0569
     18 C12         0.3157   -0.0138    0.9213 C.ar      1 <0>        -0.0406
     19 C13         0.4886    2.1521   -0.4324 C.3       1 <0>        -0.0270
     20 C14        -0.3026    1.0796    0.2757 C.ar      1 <0>        -0.0404
     21 C15        -0.5061   -0.9616    1.5566 C.ar      1 <0>        -0.0546
     22 C16        -1.7054    1.1676    0.2360 C.ar      1 <0>        -0.0157
     23 C17        -1.8982   -0.8571    1.5171 C.ar      1 <0>        -0.0189
     24 C18        -2.4983    0.2046    0.8529 C.ar      1 <0>         0.1335
     25 C19        -4.4806   -0.3315   -0.2857 C.2       1 <0>         0.4082
     26 C20        -6.6295    0.5135    0.7279 C.3       1 <0>         0.0313
     27 C21        -6.6579   -0.8088   -1.3612 C.3       1 <0>         0.0313
     28 C22        -6.8194    1.9825    0.3895 C.3       1 <0>         0.0385
     29 C23        -7.0843   -2.2311   -1.0386 C.3       1 <0>         0.0385
     30 H1          4.2422    1.0492    1.0712 H         1 <0>         0.0310
     31 H2          2.2515    0.2922   -1.1049 H         1 <0>         0.0310
     32 H3          2.0966    0.3723    1.9636 H         1 <0>         0.0352
     33 H4          6.3171   -0.2678    1.1755 H         1 <0>         0.0599
     34 H5          4.2815   -2.6431    1.0610 H         1 <0>         0.0272
     35 H6          4.2839   -1.2098    2.0747 H         1 <0>         0.0272
     36 H7          4.5885    1.3704   -1.9241 H         1 <0>         0.0269
     37 H8          4.9865    2.5022   -0.6257 H         1 <0>         0.0269
     38 H9          2.0503   -2.0555    1.9729 H         1 <0>         0.0271
     39 H10         2.0324   -2.1324    0.2222 H         1 <0>         0.0271
     40 H11         7.0222    1.4313   -0.2386 H         1 <0>         0.0290
     41 H12         6.7340    0.5162   -1.7147 H         1 <0>         0.0290
     42 H13         2.1344    2.5895    0.8992 H         1 <0>         0.0271
     43 H14         2.5016    2.7920   -0.8122 H         1 <0>         0.0271
     44 H15         4.7163   -2.5064   -1.3746 H         1 <0>         0.0236
     45 H16         3.2344   -1.5908   -1.6020 H         1 <0>         0.0236
     46 H17         4.7526   -0.9668   -2.2299 H         1 <0>         0.0236
     47 H18         0.3677    2.0003   -1.5128 H         1 <0>         0.0313
     48 H19         0.0754    3.1390   -0.1910 H         1 <0>         0.0313
     49 H20         7.8186   -1.2742   -0.2307 H         1 <0>         0.2098
     50 H21        -0.0811   -1.7983    2.1028 H         1 <0>         0.0622
     51 H22        -2.1801    1.9994   -0.2806 H         1 <0>         0.0657
     52 H23        -2.5058   -1.6094    2.0130 H         1 <0>         0.0654
     53 H24        -6.0967    0.4255    1.6818 H         1 <0>         0.0477
     54 H25        -7.5972    0.0160    0.8642 H         1 <0>         0.0477
     55 H26        -6.0507   -0.8141   -2.2748 H         1 <0>         0.0477
     56 H27        -7.5284   -0.1740   -1.5650 H         1 <0>         0.0477
     57 H28        -7.3656    2.1048   -0.5507 H         1 <0>         0.0445
     58 H29        -5.8552    2.4901    0.2852 H         1 <0>         0.0445
     59 H30        -7.7025   -2.2643   -0.1362 H         1 <0>         0.0445
     60 H31        -6.2148   -2.8748   -0.8725 H         1 <0>         0.0445
@<TRIPOS>BOND
     1    1   28 1
     2    2   29 1
     3    3   11 1
     4    3   49 1
     5    4   24 1
     6    4   25 1
     7    5   25 2
     8    6   25 am
     9    6   26 1
    10    6   27 1
    11    7    8 1
    12    7   11 1
    13    7   12 1
    14    7   17 1
    15    8    9 1
    16    8   13 1
    17    8   30 1
    18    9   10 1
    19    9   16 1
    20    9   31 1
    21   10   14 1
    22   10   18 1
    23   10   32 1
    24   11   15 1
    25   11   33 1
    26   12   14 1
    27   12   34 1
    28   12   35 1
    29   13   15 1
    30   13   36 1
    31   13   37 1
    32   14   38 1
    33   14   39 1
    34   15   40 1
    35   15   41 1
    36   16   19 1
    37   16   42 1
    38   16   43 1
    39   17   44 1
    40   17   45 1
    41   17   46 1
    42   18   20 ar
    43   18   21 ar
    44   19   20 1
    45   19   47 1
    46   19   48 1
    47   20   22 ar
    48   21   23 ar
    49   21   50 1
    50   22   24 ar
    51   22   51 1
    52   23   24 ar
    53   23   52 1
    54   26   28 1
    55   26   53 1
    56   26   54 1
    57   27   29 1
    58   27   55 1
    59   27   56 1
    60   28   57 1
    61   28   58 1
    62   29   59 1
    63   29   60 1
