@<TRIPOS>MOLECULE
DB01364
   27    27     0     0     0
SMALL
USER_CHARGES

@<TRIPOS>ATOM
      1 O1          0.7218    0.6538   -1.6924 O.3       1 <0>        -0.3856
      2 N1          2.7445    0.2199    0.3345 N.3       1 <0>        -0.3138
      3 C1          1.3098    0.2716    0.6432 C.3       1 <0>         0.0347
      4 C2          0.4995   -0.2159   -0.5790 C.3       1 <0>         0.0952
      5 C3         -0.9955   -0.2500   -0.3431 C.ar      1 <0>        -0.0177
      6 C4          0.9644    1.7072    1.0430 C.3       1 <0>        -0.0470
      7 C5         -1.5738   -1.4031    0.1580 C.ar      1 <0>        -0.0561
      8 C6         -1.7507    0.8729   -0.6333 C.ar      1 <0>        -0.0561
      9 C7          3.1360   -1.1267   -0.0433 C.3       1 <0>        -0.0155
     10 C8         -2.9512   -1.4345    0.3757 C.ar      1 <0>        -0.0614
     11 C9         -3.1281    0.8413   -0.4156 C.ar      1 <0>        -0.0614
     12 C10        -3.7283   -0.3125    0.0889 C.ar      1 <0>        -0.0617
     13 H1          1.1039   -0.3734    1.5075 H         1 <0>         0.0486
     14 H2          0.7821   -1.2235   -0.9021 H         1 <0>         0.0659
     15 H3         -0.0608    1.7834    1.4176 H         1 <0>         0.0246
     16 H4          1.6170    2.0468    1.8565 H         1 <0>         0.0246
     17 H5          1.0830    2.4111    0.2121 H         1 <0>         0.0246
     18 H6          2.9796    0.8738   -0.4105 H         1 <0>         0.1220
     19 H7         -0.9760   -2.2806    0.3869 H         1 <0>         0.0621
     20 H8         -1.3112    1.7889   -1.0162 H         1 <0>         0.0621
     21 H9          1.6523    0.5611   -1.9569 H         1 <0>         0.2103
     22 H10         2.8753   -1.3719   -1.0773 H         1 <0>         0.0388
     23 H11         2.7315   -1.8874    0.6332 H         1 <0>         0.0388
     24 H12         4.2273   -1.1993    0.0200 H         1 <0>         0.0388
     25 H13        -3.4184   -2.3324    0.7695 H         1 <0>         0.0618
     26 H14        -3.7333    1.7159   -0.6362 H         1 <0>         0.0618
     27 H15        -4.8007   -0.3366    0.2593 H         1 <0>         0.0618
@<TRIPOS>BOND
     1    1    4 1
     2    1   21 1
     3    2    3 1
     4    2    9 1
     5    2   18 1
     6    3    4 1
     7    3    6 1
     8    3   13 1
     9    4    5 1
    10    4   14 1
    11    5    7 ar
    12    5    8 ar
    13    6   15 1
    14    6   16 1
    15    6   17 1
    16    7   10 ar
    17    7   19 1
    18    8   11 ar
    19    8   20 1
    20    9   22 1
    21    9   23 1
    22    9   24 1
    23   10   12 ar
    24   10   25 1
    25   11   12 ar
    26   11   26 1
    27   12   27 1
