@<TRIPOS>MOLECULE
DB01035
   38    38     0     0     0
SMALL
USER_CHARGES

@<TRIPOS>ATOM
      1 O1          1.1245   -0.6333    1.9670 O.2       1 <0>        -0.2702
      2 N1         -3.0628   -0.0659    0.1697 N.3       1 <0>        -0.3014
      3 N2          0.5609    0.8263    0.2565 N.am      1 <0>        -0.3101
      4 N3          6.8252   -0.0305   -0.7616 N.pl3     1 <0>        -0.3580
      5 C1         -1.6421   -0.1529   -0.1663 C.3       1 <0>         0.0145
      6 C2         -3.8146   -1.1190   -0.5120 C.3       1 <0>        -0.0039
      7 C3         -3.5920    1.2507   -0.1841 C.3       1 <0>        -0.0039
      8 C4         -0.8587    0.9244    0.5779 C.3       1 <0>         0.0247
      9 C5         -3.2780   -2.4950   -0.1557 C.3       1 <0>        -0.0524
     10 C6         -5.0525    1.3804    0.2141 C.3       1 <0>        -0.0524
     11 C7          1.4501    0.0403    0.9929 C.2       1 <0>         0.2441
     12 C8          2.8617    0.0229    0.5325 C.ar      1 <0>         0.0368
     13 C9          3.8598   -0.2287    1.4514 C.ar      1 <0>        -0.0479
     14 C10         3.1316    0.2580   -0.8002 C.ar      1 <0>        -0.0479
     15 C11         5.1859   -0.2461    1.0186 C.ar      1 <0>        -0.0403
     16 C12         4.4575    0.2406   -1.2329 C.ar      1 <0>        -0.0403
     17 C13         5.4848   -0.0115   -0.3236 C.ar      1 <0>         0.0246
     18 H1         -1.4763   -0.0597   -1.2482 H         1 <0>         0.0442
     19 H2         -1.2163   -1.1131    0.1437 H         1 <0>         0.0442
     20 H3         -4.8605   -1.1168   -0.1883 H         1 <0>         0.0424
     21 H4         -3.8044   -0.9912   -1.6017 H         1 <0>         0.0424
     22 H5         -3.0909    2.0451    0.3750 H         1 <0>         0.0424
     23 H6         -3.4754    1.4694   -1.2529 H         1 <0>         0.0424
     24 H7         -0.9864    0.8331    1.6623 H         1 <0>         0.0475
     25 H8         -1.1236    1.9393    0.2734 H         1 <0>         0.0475
     26 H9         -2.3378   -2.7242   -0.6671 H         1 <0>         0.0242
     27 H10        -3.1366   -2.6112    0.9243 H         1 <0>         0.0242
     28 H11        -3.9960   -3.2601   -0.4727 H         1 <0>         0.0242
     29 H12        -5.7191    0.8254   -0.4531 H         1 <0>         0.0242
     30 H13        -5.2241    1.0503    1.2445 H         1 <0>         0.0242
     31 H14        -5.3578    2.4314    0.1538 H         1 <0>         0.0242
     32 H15         0.8929    1.3996   -0.5117 H         1 <0>         0.1490
     33 H16         3.6437   -0.4086    2.5003 H         1 <0>         0.0626
     34 H17         2.3591    0.4251   -1.5435 H         1 <0>         0.0626
     35 H18         5.9776   -0.4428    1.7370 H         1 <0>         0.0636
     36 H19         4.6775    0.4175   -2.2827 H         1 <0>         0.0636
     37 H20         7.0424    0.1418   -1.7342 H         1 <0>         0.1423
     38 H21         7.5707   -0.2110   -0.1024 H         1 <0>         0.1423
@<TRIPOS>BOND
     1    1   11 2
     2    2    5 1
     3    2    6 1
     4    2    7 1
     5    3    8 1
     6    3   11 am
     7    3   32 1
     8    4   17 1
     9    4   37 1
    10    4   38 1
    11    5    8 1
    12    5   18 1
    13    5   19 1
    14    6    9 1
    15    6   20 1
    16    6   21 1
    17    7   10 1
    18    7   22 1
    19    7   23 1
    20    8   24 1
    21    8   25 1
    22    9   26 1
    23    9   27 1
    24    9   28 1
    25   10   29 1
    26   10   30 1
    27   10   31 1
    28   11   12 1
    29   12   13 ar
    30   12   14 ar
    31   13   15 ar
    32   13   33 1
    33   14   16 ar
    34   14   34 1
    35   15   17 ar
    36   15   35 1
    37   16   17 ar
    38   16   36 1
