@<TRIPOS>MOLECULE
DB01424
   34    35     0     0     0
SMALL
USER_CHARGES

@<TRIPOS>ATOM
      1 O1         -0.2887   -2.1739   -0.4377 O.2       1 <0>        -0.2638
      2 N1          0.1188    1.2373    0.0267 N.pl3     1 <0>        -0.2823
      3 N2          0.6926   -0.0213   -0.2077 N.am      1 <0>        -0.2156
      4 N3         -2.7818   -0.9002    0.1385 N.pl3     1 <0>        -0.3304
      5 C1         -1.2439    1.0368    0.2340 C.2       1 <0>         0.0592
      6 C2         -1.6045   -0.2445    0.0682 C.2       1 <0>         0.1171
      7 C3         -0.3366   -0.9672   -0.2577 C.2       1 <0>         0.2932
      8 C4          2.0783   -0.2853   -0.0690 C.ar      1 <0>         0.0674
      9 C5         -2.1533    2.1762    0.5515 C.3       1 <0>        -0.0208
     10 C6          0.5991    2.3764   -0.7493 C.3       1 <0>         0.0292
     11 C7         -3.9108   -0.5617   -0.7321 C.3       1 <0>         0.0006
     12 C8         -2.9340   -2.1417    0.9021 C.3       1 <0>         0.0006
     13 C9          2.6229   -1.4712   -0.5715 C.ar      1 <0>        -0.0362
     14 C10         2.9110    0.6384    0.5706 C.ar      1 <0>        -0.0362
     15 C11         3.9867   -1.7311   -0.4356 C.ar      1 <0>        -0.0598
     16 C12         4.2747    0.3784    0.7064 C.ar      1 <0>        -0.0598
     17 C13         4.8125   -0.8063    0.2032 C.ar      1 <0>        -0.0616
     18 H1         -3.1576    1.8376    0.8243 H         1 <0>         0.0293
     19 H2         -2.2464    2.8481   -0.3073 H         1 <0>         0.0293
     20 H3         -1.7622    2.7487    1.3991 H         1 <0>         0.0293
     21 H4          0.4164    3.3073   -0.2020 H         1 <0>         0.0472
     22 H5          0.0718    2.4326   -1.7088 H         1 <0>         0.0472
     23 H6          1.6671    2.3347   -0.9761 H         1 <0>         0.0472
     24 H7         -3.7401    0.3699   -1.2824 H         1 <0>         0.0428
     25 H8         -4.8225   -0.4396   -0.1382 H         1 <0>         0.0428
     26 H9         -4.0732   -1.3594   -1.4645 H         1 <0>         0.0428
     27 H10        -3.9364   -2.2008    1.3397 H         1 <0>         0.0428
     28 H11        -2.2139   -2.1945    1.7263 H         1 <0>         0.0428
     29 H12        -2.7910   -3.0104    0.2512 H         1 <0>         0.0428
     30 H13         2.0204   -2.2024   -1.1004 H         1 <0>         0.0639
     31 H14         2.5265    1.5541    1.0104 H         1 <0>         0.0639
     32 H15         4.4071   -2.6504   -0.8327 H         1 <0>         0.0618
     33 H16         4.9169    1.0942    1.2113 H         1 <0>         0.0618
     34 H17         5.8742   -1.0089    0.3095 H         1 <0>         0.0618
@<TRIPOS>BOND
     1    1    7 2
     2    2    3 2
     3    2    5 1
     4    2   10 1
     5    3    7 am
     6    3    8 1
     7    4    6 1
     8    4   11 1
     9    4   12 1
    10    5    6 2
    11    5    9 1
    12    6    7 1
    13    8   13 ar
    14    8   14 ar
    15    9   18 1
    16    9   19 1
    17    9   20 1
    18   10   21 1
    19   10   22 1
    20   10   23 1
    21   11   24 1
    22   11   25 1
    23   11   26 1
    24   12   27 1
    25   12   28 1
    26   12   29 1
    27   13   15 ar
    28   13   30 1
    29   14   16 ar
    30   14   31 1
    31   15   17 ar
    32   15   32 1
    33   16   17 ar
    34   16   33 1
    35   17   34 1
