@<TRIPOS>MOLECULE
DB01042
   37    37     0     0     0
SMALL
USER_CHARGES

@<TRIPOS>ATOM
      1 Cl1         4.2611    3.6240   -0.0685 Cl        1 <0>        -0.1238
      2 Cl2         4.0983   -3.6708    0.6585 Cl        1 <0>        -0.1238
      3 O1         -3.2955   -0.0868    2.4766 O.3       1 <0>        -0.4795
      4 O2         -3.9585    1.7477    1.3190 O.2       1 <0>        -0.2492
      5 N1          2.5173   -0.0182   -0.0265 N.pl3     1 <0>        -0.3276
      6 N2         -5.3355   -0.3851   -0.1468 N.3       1 <0>        -0.3181
      7 C1          1.1293   -0.0123   -0.2776 C.ar      1 <0>         0.0298
      8 C2         -3.0838    0.0046   -1.0372 C.3       1 <0>        -0.0020
      9 C3         -1.5965   -0.0015   -0.7689 C.ar      1 <0>        -0.0452
     10 C4          3.1789    1.1731    0.4666 C.3       1 <0>         0.0257
     11 C5          3.2973   -1.2200   -0.2452 C.3       1 <0>         0.0257
     12 C6         -3.9135   -0.4092    0.1882 C.3       1 <0>         0.1072
     13 C7          0.5014   -1.1643   -0.7513 C.ar      1 <0>        -0.0404
     14 C8          0.3842    1.1450   -0.0512 C.ar      1 <0>        -0.0404
     15 C9         -0.8713   -1.1590   -0.9989 C.ar      1 <0>        -0.0568
     16 C10        -0.9885    1.1505   -0.2987 C.ar      1 <0>        -0.0568
     17 C11         3.4570    2.1505   -0.6645 C.3       1 <0>         0.0383
     18 C12         3.1517   -2.1847    0.9211 C.3       1 <0>         0.0383
     19 C13        -3.7256    0.5461    1.3543 C.2       1 <0>         0.3220
     20 H1         -3.3751    1.0072   -1.3807 H         1 <0>         0.0334
     21 H2         -3.2983   -0.6663   -1.8804 H         1 <0>         0.0334
     22 H3          4.1379    0.8932    0.9242 H         1 <0>         0.0475
     23 H4          2.6232    1.6396    1.2893 H         1 <0>         0.0475
     24 H5          4.3585   -0.9510   -0.3401 H         1 <0>         0.0475
     25 H6          3.0616   -1.6933   -1.2062 H         1 <0>         0.0475
     26 H7         -3.6398   -1.4216    0.5070 H         1 <0>         0.0577
     27 H8          1.0219   -2.0944   -0.9500 H         1 <0>         0.0636
     28 H9          0.8098    2.0713    0.3183 H         1 <0>         0.0636
     29 H10        -1.3530   -2.0606   -1.3662 H         1 <0>         0.0621
     30 H11        -1.5561    2.0601   -0.1260 H         1 <0>         0.0621
     31 H12         4.1192    1.6981   -1.4103 H         1 <0>         0.0445
     32 H13         2.5502    2.4687   -1.1848 H         1 <0>         0.0445
     33 H14         2.1165   -2.4905    1.0921 H         1 <0>         0.0445
     34 H15         3.5145   -1.7275    1.8476 H         1 <0>         0.0445
     35 H16        -5.5941    0.5367   -0.4984 H         1 <0>         0.1190
     36 H17        -5.5153   -1.0334   -0.9128 H         1 <0>         0.1190
     37 H18        -3.1895    0.5343    3.2284 H         1 <0>         0.2951
@<TRIPOS>BOND
     1    1   17 1
     2    2   18 1
     3    3   19 1
     4    3   37 1
     5    4   19 2
     6    5    7 1
     7    5   10 1
     8    5   11 1
     9    6   12 1
    10    6   35 1
    11    6   36 1
    12    7   13 ar
    13    7   14 ar
    14    8    9 1
    15    8   12 1
    16    8   20 1
    17    8   21 1
    18    9   15 ar
    19    9   16 ar
    20   10   17 1
    21   10   22 1
    22   10   23 1
    23   11   18 1
    24   11   24 1
    25   11   25 1
    26   12   19 1
    27   12   26 1
    28   13   15 ar
    29   13   27 1
    30   14   16 ar
    31   14   28 1
    32   15   29 1
    33   16   30 1
    34   17   31 1
    35   17   32 1
    36   18   33 1
    37   18   34 1
