@<TRIPOS>MOLECULE
DB01399
   29    30     0     0     0
SMALL
USER_CHARGES

@<TRIPOS>ATOM
      1 O1         -0.3329   -0.6218    0.4674 O.3       1 <0>        -0.4214
      2 O2          2.3685    1.5701   -1.7284 O.3       1 <0>        -0.5059
      3 O3          0.0149    0.1717   -1.6972 O.2       1 <0>        -0.2444
      4 O4         -2.4334    2.8838    0.6468 O.3       1 <0>        -0.4770
      5 O5         -0.8185    1.7549    1.7800 O.2       1 <0>        -0.2450
      6 C1         -1.7062   -0.5934    0.2099 C.ar      1 <0>         0.1459
      7 C2          1.8692   -0.2615   -0.2620 C.ar      1 <0>         0.1007
      8 C3         -2.4271    0.5481    0.4838 C.ar      1 <0>         0.1011
      9 C4          2.7797    0.6265   -0.8350 C.ar      1 <0>         0.1308
     10 C5         -2.2870   -1.7272   -0.3165 C.ar      1 <0>        -0.0184
     11 C6          0.4545   -0.2052   -0.6030 C.2       1 <0>         0.3480
     12 C7         -3.7965    0.5571    0.2188 C.ar      1 <0>        -0.0442
     13 C8          2.3100   -1.2210    0.6495 C.ar      1 <0>        -0.0442
     14 C9         -3.6564   -1.7181   -0.5816 C.ar      1 <0>        -0.0582
     15 C10        -4.4112   -0.5760   -0.3139 C.ar      1 <0>        -0.0608
     16 C11         4.1310    0.5548   -0.4967 C.ar      1 <0>        -0.0194
     17 C12         3.6612   -1.2926    0.9879 C.ar      1 <0>        -0.0608
     18 C13         4.5718   -0.4048    0.4148 C.ar      1 <0>        -0.0583
     19 C14        -1.8047    1.7424    1.0380 C.2       1 <0>         0.3404
     20 H1         -1.7003   -2.6167   -0.5243 H         1 <0>         0.0654
     21 H2         -4.4138    1.4268    0.4280 H         1 <0>         0.0627
     22 H3          1.6292   -1.9371    1.1025 H         1 <0>         0.0627
     23 H4         -4.1352   -2.6007   -0.9957 H         1 <0>         0.0619
     24 H5         -5.4780   -0.5705   -0.5177 H         1 <0>         0.0618
     25 H6          4.8517    1.2396   -0.9355 H         1 <0>         0.0654
     26 H7          4.0055   -2.0419    1.6948 H         1 <0>         0.0618
     27 H8          5.6241   -0.4615    0.6776 H         1 <0>         0.0619
     28 H9          3.1374    2.0912   -2.0165 H         1 <0>         0.2922
     29 H10        -2.0074    3.6830    1.0241 H         1 <0>         0.2954
@<TRIPOS>BOND
     1    1    6 1
     2    1   11 1
     3    2    9 1
     4    2   28 1
     5    3   11 2
     6    4   19 1
     7    4   29 1
     8    5   19 2
     9    6    8 ar
    10    6   10 ar
    11    7    9 ar
    12    7   11 1
    13    7   13 ar
    14    8   12 ar
    15    8   19 1
    16    9   16 ar
    17   10   14 ar
    18   10   20 1
    19   12   15 ar
    20   12   21 1
    21   13   17 ar
    22   13   22 1
    23   14   15 ar
    24   14   23 1
    25   15   24 1
    26   16   18 ar
    27   16   25 1
    28   17   18 ar
    29   17   26 1
    30   18   27 1
