@<TRIPOS>MOLECULE
DB01382
   36    37     0     0     0
SMALL
USER_CHARGES

@<TRIPOS>ATOM
      1 S1          3.9888   -1.4747   -0.7081 S.o2      1 <0>         0.0746
      2 O1         -2.4208   -1.0105   -0.1110 O.3       1 <0>        -0.4866
      3 O2          5.3326   -1.7185   -0.1968 O.2       1 <0>        -0.1499
      4 O3          3.7001   -1.7891   -2.1019 O.2       1 <0>        -0.1499
      5 O4         -4.5416    0.7891   -0.4641 O.3       1 <0>        -0.3796
      6 N1          2.8708   -2.2974    0.3122 N.pl3     1 <0>        -0.1836
      7 N2          0.9339   -1.3407    1.2603 N.ar      1 <0>        -0.2180
      8 N3          0.8775   -2.2994   -0.9498 N.ar      1 <0>        -0.2180
      9 C1          3.6084    0.2055   -0.4239 C.ar      1 <0>         0.1086
     10 C2          4.2587    0.9058    0.5923 C.ar      1 <0>        -0.0351
     11 C3          2.6538    0.8477   -1.2127 C.ar      1 <0>        -0.0351
     12 C4          1.4774   -1.9593    0.2010 C.ar      1 <0>         0.2349
     13 C5         -3.0306   -0.3493    1.0030 C.3       1 <0>         0.1130
     14 C6          3.9544    2.2478    0.8198 C.ar      1 <0>        -0.0599
     15 C7          2.3496    2.1898   -0.9853 C.ar      1 <0>        -0.0599
     16 C8         -1.1127   -1.3288   -0.0063 C.ar      1 <0>         0.1567
     17 C9          3.0000    2.8899    0.0310 C.ar      1 <0>        -0.0616
     18 C10        -4.4829   -0.0626    0.6738 C.3       1 <0>         0.0814
     19 C11        -0.3734   -1.0374    1.1219 C.ar      1 <0>         0.0744
     20 C12        -0.4281   -1.9667   -1.0205 C.ar      1 <0>         0.0744
     21 C13        -5.8839    1.0740   -0.8323 C.3       1 <0>         0.0366
     22 H1          3.1773   -2.4136    1.2870 H         1 <0>         0.1767
     23 H2          4.9999    0.4246    1.2241 H         1 <0>         0.0637
     24 H3          2.1340    0.3228   -2.0092 H         1 <0>         0.0637
     25 H4         -2.5221    0.6058    1.1844 H         1 <0>         0.0720
     26 H5         -2.9912   -0.9875    1.8936 H         1 <0>         0.0720
     27 H6          4.4590    2.7927    1.6122 H         1 <0>         0.0618
     28 H7          1.6056    2.6896   -1.5987 H         1 <0>         0.0618
     29 H8         -4.9718    0.4220    1.5262 H         1 <0>         0.0593
     30 H9         -5.0016   -1.0002    0.4421 H         1 <0>         0.0593
     31 H10         2.7624    3.9347    0.2086 H         1 <0>         0.0618
     32 H11        -0.7756   -0.5406    1.9969 H         1 <0>         0.0869
     33 H12        -0.9215   -2.2375   -1.9483 H         1 <0>         0.0869
     34 H13        -6.4049    1.5862   -0.0177 H         1 <0>         0.0524
     35 H14        -5.8689    1.7323   -1.7051 H         1 <0>         0.0524
     36 H15        -6.4126    0.1536   -1.0987 H         1 <0>         0.0524
@<TRIPOS>BOND
     1    1    3 2
     2    1    4 2
     3    1    6 1
     4    1    9 1
     5    2   13 1
     6    2   16 1
     7    5   18 1
     8    5   21 1
     9    6   12 1
    10    6   22 1
    11    7   12 ar
    12    7   19 ar
    13    8   12 ar
    14    8   20 ar
    15    9   10 ar
    16    9   11 ar
    17   10   14 ar
    18   10   23 1
    19   11   15 ar
    20   11   24 1
    21   13   18 1
    22   13   25 1
    23   13   26 1
    24   14   17 ar
    25   14   27 1
    26   15   17 ar
    27   15   28 1
    28   16   19 ar
    29   16   20 ar
    30   17   31 1
    31   18   29 1
    32   18   30 1
    33   19   32 1
    34   20   33 1
    35   21   34 1
    36   21   35 1
    37   21   36 1
