@<TRIPOS>MOLECULE
DB01165
   46    49     0     0     0
SMALL
USER_CHARGES

@<TRIPOS>ATOM
      1 F1         -0.9463   -3.2631    0.1377 F         1 <0>        -0.2034
      2 O1         -0.1222    1.3801   -0.2508 O.3       1 <0>        -0.4859
      3 O2          4.0890   -2.9190   -0.0853 O.2       1 <0>        -0.2863
      4 O3          6.4221   -1.8426    0.4460 O.3       1 <0>        -0.4770
      5 O4          6.8058    0.0502   -0.7788 O.2       1 <0>        -0.2449
      6 N1         -1.9002   -0.6803   -0.0143 N.pl3     1 <0>        -0.3224
      7 N2          2.7124    0.9101   -0.2325 N.pl3     1 <0>        -0.3367
      8 N3         -4.7430   -0.4022   -0.0415 N.3       1 <0>        -0.3024
      9 C1         -2.6886   -1.0820    1.1547 C.3       1 <0>         0.0252
     10 C2         -2.6251   -0.6540   -1.2910 C.3       1 <0>         0.0252
     11 C3          2.1654    2.2684   -0.1759 C.3       1 <0>         0.0658
     12 C4         -0.5245   -0.9347   -0.0446 C.ar      1 <0>         0.1098
     13 C5          1.7745   -0.1400   -0.1690 C.ar      1 <0>         0.0974
     14 C6          0.3939    0.1102   -0.1640 C.ar      1 <0>         0.1684
     15 C7         -3.9972   -0.2905    1.2181 C.3       1 <0>         0.0144
     16 C8         -3.9351    0.1245   -1.1485 C.3       1 <0>         0.0144
     17 C9          0.7979    2.2908   -0.8605 C.3       1 <0>         0.1101
     18 C10         2.2113   -1.4766   -0.1011 C.ar      1 <0>         0.0524
     19 C11        -0.0729   -2.2511    0.0333 C.ar      1 <0>         0.1487
     20 C12         4.0620    0.6215   -0.2462 C.2       1 <0>         0.0233
     21 C13         1.2934   -2.5275   -0.0017 C.ar      1 <0>        -0.0116
     22 C14         2.0895    2.7441    1.2773 C.3       1 <0>        -0.0410
     23 C15         3.6690   -1.7694   -0.1277 C.2       1 <0>         0.2036
     24 C16        -6.0153    0.3130    0.0503 C.3       1 <0>        -0.0126
     25 C17         4.5942   -0.6065   -0.2054 C.2       1 <0>         0.1220
     26 C18         6.0517   -0.7336   -0.2289 C.2       1 <0>         0.3420
     27 H1         -2.9085   -2.1557    1.1075 H         1 <0>         0.0476
     28 H2         -2.1221   -0.8988    2.0760 H         1 <0>         0.0476
     29 H3         -2.0174   -0.1766   -2.0695 H         1 <0>         0.0476
     30 H4         -2.8281   -1.6822   -1.6168 H         1 <0>         0.0476
     31 H5          2.8256    2.9527   -0.7246 H         1 <0>         0.0559
     32 H6         -4.5973   -0.6861    2.0465 H         1 <0>         0.0442
     33 H7         -3.7784    0.7614    1.4468 H         1 <0>         0.0442
     34 H8         -3.7136    1.1893   -0.9948 H         1 <0>         0.0442
     35 H9         -4.4886    0.0389   -2.0914 H         1 <0>         0.0442
     36 H10         0.3583    3.2922   -0.7963 H         1 <0>         0.0717
     37 H11         0.8834    2.0459   -1.9278 H         1 <0>         0.0717
     38 H12         4.6791    1.5134   -0.2869 H         1 <0>         0.0819
     39 H13         1.6220   -3.5613    0.0557 H         1 <0>         0.0654
     40 H14         3.0860    2.7611    1.7321 H         1 <0>         0.0251
     41 H15         1.6794    3.7579    1.3305 H         1 <0>         0.0251
     42 H16         1.4611    2.0916    1.8931 H         1 <0>         0.0251
     43 H17        -5.8775    1.3835    0.2416 H         1 <0>         0.0391
     44 H18        -6.6331   -0.1039    0.8534 H         1 <0>         0.0391
     45 H19        -6.5876    0.1994   -0.8769 H         1 <0>         0.0391
     46 H20         7.3956   -1.9625    0.4520 H         1 <0>         0.2954
@<TRIPOS>BOND
     1    1   19 1
     2    2   14 1
     3    2   17 1
     4    3   23 2
     5    4   26 1
     6    4   46 1
     7    5   26 2
     8    6    9 1
     9    6   10 1
    10    6   12 1
    11    7   11 1
    12    7   13 1
    13    7   20 2
    14    8   15 1
    15    8   16 1
    16    8   24 1
    17    9   15 1
    18    9   27 1
    19    9   28 1
    20   10   16 1
    21   10   29 1
    22   10   30 1
    23   11   17 1
    24   11   22 1
    25   11   31 1
    26   12   14 ar
    27   12   19 ar
    28   13   14 ar
    29   13   18 ar
    30   15   32 1
    31   15   33 1
    32   16   34 1
    33   16   35 1
    34   17   36 1
    35   17   37 1
    36   18   21 ar
    37   18   23 1
    38   19   21 ar
    39   20   25 1
    40   20   38 1
    41   21   39 1
    42   22   40 1
    43   22   41 1
    44   22   42 1
    45   23   25 1
    46   24   43 1
    47   24   44 1
    48   24   45 1
    49   25   26 1
