@<TRIPOS>MOLECULE
DB01597
   50    50     0     0     0
SMALL
USER_CHARGES

@<TRIPOS>ATOM
      1 S1          3.1966   -2.3281   -0.5806 S.3       1 <0>        -0.1587
      2 O1         -1.7381    0.8555    2.1933 O.2       1 <0>        -0.2751
      3 O2          1.0407    1.4667    3.1179 O.3       1 <0>        -0.4763
      4 O3         -0.2166    3.3231    2.7527 O.2       1 <0>        -0.2437
      5 O4         -0.0409   -4.0411   -1.0356 O.3       1 <0>        -0.4795
      6 O5          0.9421   -4.8787    0.8295 O.2       1 <0>        -0.2492
      7 N1         -0.3778    1.1768    0.3253 N.am      1 <0>        -0.2799
      8 N2         -0.0691   -2.3148    1.8639 N.3       1 <0>        -0.3178
      9 C1         -3.4599    0.3787   -0.6201 C.3       1 <0>        -0.0231
     10 C2         -2.3424   -0.2135    0.1876 C.3       1 <0>         0.0415
     11 C3         -3.7666   -0.4174    0.6144 C.3       1 <0>        -0.0355
     12 C4         -3.7658   -0.2435   -1.9386 C.3       1 <0>        -0.0591
     13 C5         -3.6973    1.8490   -0.5717 C.3       1 <0>        -0.0591
     14 C6         -1.4594    0.6612    1.0154 C.2       1 <0>         0.2210
     15 C7          0.5538    2.0001    0.8902 C.2       1 <0>         0.1144
     16 C8          1.6073    2.5051    0.2259 C.2       1 <0>        -0.0558
     17 C9          1.9669    2.2842   -1.2196 C.3       1 <0>        -0.0325
     18 C10         0.3994    2.3588    2.3250 C.2       1 <0>         0.3508
     19 C11         3.3922    1.7483   -1.4007 C.3       1 <0>        -0.0488
     20 C12         3.6634    0.3788   -0.7638 C.3       1 <0>        -0.0437
     21 C13         2.8307   -0.7402   -1.3841 C.3       1 <0>        -0.0062
     22 C14         2.1760   -2.1151    0.8956 C.3       1 <0>         0.0193
     23 C15         0.7128   -2.4787    0.6366 C.3       1 <0>         0.1123
     24 C16         0.5499   -3.9164    0.1797 C.2       1 <0>         0.3225
     25 H1         -1.8444   -1.0800   -0.2345 H         1 <0>         0.0400
     26 H2         -4.1427    0.1058    1.4858 H         1 <0>         0.0278
     27 H3         -4.1840   -1.4122    0.5029 H         1 <0>         0.0278
     28 H4         -4.8155   -0.0834   -2.2075 H         1 <0>         0.0235
     29 H5         -3.5865   -1.3245   -1.9422 H         1 <0>         0.0235
     30 H6         -3.1423    0.1965   -2.7244 H         1 <0>         0.0235
     31 H7         -3.5879    2.2682    0.4344 H         1 <0>         0.0235
     32 H8         -4.7133    2.0850   -0.9070 H         1 <0>         0.0235
     33 H9         -2.9958    2.3725   -1.2302 H         1 <0>         0.0235
     34 H10        -0.2752    0.9282   -0.6534 H         1 <0>         0.1550
     35 H11         2.2880    3.1621    0.7671 H         1 <0>         0.0593
     36 H12         1.9036    3.2566   -1.7245 H         1 <0>         0.0308
     37 H13         1.2580    1.6358   -1.7403 H         1 <0>         0.0308
     38 H14         4.1035    2.4712   -0.9805 H         1 <0>         0.0268
     39 H15         3.6110    1.6928   -2.4746 H         1 <0>         0.0268
     40 H16         4.7296    0.1536   -0.8995 H         1 <0>         0.0273
     41 H17         3.4989    0.4501    0.3164 H         1 <0>         0.0273
     42 H18         3.0856   -0.8400   -2.4446 H         1 <0>         0.0376
     43 H19         1.7590   -0.5380   -1.3296 H         1 <0>         0.0376
     44 H20         0.9489    1.6886    4.0690 H         1 <0>         0.2954
     45 H21         2.5942   -2.7804    1.6607 H         1 <0>         0.0397
     46 H22         2.2652   -1.0977    1.2880 H         1 <0>         0.0397
     47 H23         0.2959   -1.8174   -0.1285 H         1 <0>         0.0582
     48 H24         0.0245   -1.3598    2.2064 H         1 <0>         0.1190
     49 H25        -1.0587   -2.4526    1.6627 H         1 <0>         0.1190
     50 H26        -0.1176   -4.9796   -1.3105 H         1 <0>         0.2951
@<TRIPOS>BOND
     1    1   21 1
     2    1   22 1
     3    2   14 2
     4    3   18 1
     5    3   44 1
     6    4   18 2
     7    5   24 1
     8    5   50 1
     9    6   24 2
    10    7   14 am
    11    7   15 1
    12    7   34 1
    13    8   23 1
    14    8   48 1
    15    8   49 1
    16    9   10 1
    17    9   11 1
    18    9   12 1
    19    9   13 1
    20   10   11 1
    21   10   14 1
    22   10   25 1
    23   11   26 1
    24   11   27 1
    25   12   28 1
    26   12   29 1
    27   12   30 1
    28   13   31 1
    29   13   32 1
    30   13   33 1
    31   15   16 2
    32   15   18 1
    33   16   17 1
    34   16   35 1
    35   17   19 1
    36   17   36 1
    37   17   37 1
    38   19   20 1
    39   19   38 1
    40   19   39 1
    41   20   21 1
    42   20   40 1
    43   20   41 1
    44   21   42 1
    45   21   43 1
    46   22   23 1
    47   22   45 1
    48   22   46 1
    49   23   24 1
    50   23   47 1
