@<TRIPOS>MOLECULE
DB01400
   35    35     0     0     0
SMALL
USER_CHARGES

@<TRIPOS>ATOM
      1 O1         -1.8728   -0.5079    0.6985 O.3       1 <0>        -0.4112
      2 O2         -2.2301   -0.2222   -1.5697 O.2       1 <0>        -0.2258
      3 N1          2.8034    0.5618    0.0015 N.4       1 <0>        -0.3830
      4 N2         -3.9589    0.2560   -0.0891 N.am      1 <0>        -0.2732
      5 C1          1.6665   -0.4608    0.0706 C.ar      1 <0>         0.1489
      6 C2          3.4142    0.5225   -1.3964 C.3       1 <0>         0.0812
      7 C3          3.8453    0.2097    1.0596 C.3       1 <0>         0.0812
      8 C4          2.3171    1.9847    0.2686 C.3       1 <0>         0.0812
      9 C5          0.4305    0.0149    0.3555 C.ar      1 <0>         0.0460
     10 C6          1.9917   -1.7553   -0.1604 C.ar      1 <0>         0.0039
     11 C7         -0.6056   -0.9169    0.4171 C.ar      1 <0>         0.1393
     12 C8          0.9555   -2.6870   -0.0988 C.ar      1 <0>        -0.0523
     13 C9         -0.3431   -2.2678    0.1900 C.ar      1 <0>        -0.0188
     14 C10        -2.6641   -0.1586   -0.4200 C.2       1 <0>         0.4077
     15 C11        -4.8917    0.6480   -1.1362 C.3       1 <0>         0.0060
     16 C12        -4.4652    0.3244    1.2779 C.3       1 <0>         0.0060
     17 H1          2.6221    0.7013   -2.1305 H         1 <0>         0.0931
     18 H2          4.1694    1.3128   -1.4590 H         1 <0>         0.0931
     19 H3          3.8970   -0.4436   -1.5666 H         1 <0>         0.0931
     20 H4          4.3113   -0.7500    0.8198 H         1 <0>         0.0931
     21 H5          4.6133    0.9899    1.0526 H         1 <0>         0.0931
     22 H6          3.3542    0.1745    2.0374 H         1 <0>         0.0931
     23 H7          1.9148    2.0521    1.2847 H         1 <0>         0.0931
     24 H8          3.1844    2.6514    0.1984 H         1 <0>         0.0931
     25 H9          1.5957    2.2780   -0.5012 H         1 <0>         0.0931
     26 H10         0.1639    1.0458    0.5419 H         1 <0>         0.0718
     27 H11         2.9914   -2.1061   -0.3853 H         1 <0>         0.0681
     28 H12         1.1597   -3.7391   -0.2753 H         1 <0>         0.0621
     29 H13        -1.1457   -2.9989    0.2368 H         1 <0>         0.0654
     30 H14        -4.4406    0.5716   -2.1287 H         1 <0>         0.0429
     31 H15        -5.1994    1.6834   -0.9640 H         1 <0>         0.0429
     32 H16        -5.7665   -0.0069   -1.0915 H         1 <0>         0.0429
     33 H17        -5.3338   -0.3352    1.3621 H         1 <0>         0.0429
     34 H18        -4.7669    1.3546    1.4877 H         1 <0>         0.0429
     35 H19        -3.7170    0.0188    2.0118 H         1 <0>         0.0429
@<TRIPOS>BOND
     1    1   11 1
     2    1   14 1
     3    2   14 2
     4    3    5 1
     5    3    6 1
     6    3    7 1
     7    3    8 1
     8    4   14 am
     9    4   15 1
    10    4   16 1
    11    5    9 ar
    12    5   10 ar
    13    6   17 1
    14    6   18 1
    15    6   19 1
    16    7   20 1
    17    7   21 1
    18    7   22 1
    19    8   23 1
    20    8   24 1
    21    8   25 1
    22    9   11 ar
    23    9   26 1
    24   10   12 ar
    25   10   27 1
    26   11   13 ar
    27   12   13 ar
    28   12   28 1
    29   13   29 1
    30   15   30 1
    31   15   31 1
    32   15   32 1
    33   16   33 1
    34   16   34 1
    35   16   35 1
