@<TRIPOS>MOLECULE
DB01337
  101   106     0     0     0
SMALL
USER_CHARGES

@<TRIPOS>ATOM
      1 O1         -4.7169   -2.0095    0.0632 O.3       1 <0>        -0.4553
      2 O2          5.7090    1.9754   -0.2159 O.3       1 <0>        -0.4558
      3 O3         -3.7262   -3.8043   -1.0019 O.2       1 <0>        -0.2512
      4 O4          6.1635    2.9655    1.8212 O.2       1 <0>        -0.2512
      5 N1         -5.6921    0.5682    0.0003 N.4       1 <0>         0.2459
      6 N2          5.2998   -0.8753   -0.1291 N.4       1 <0>         0.2459
      7 C1         -2.0957    0.4591   -0.5636 C.3       1 <0>        -0.0238
      8 C2         -0.8090    1.0458    0.0277 C.3       1 <0>        -0.0341
      9 C3          0.3291   -0.0137   -0.1194 C.3       1 <0>        -0.0321
     10 C4         -2.5464   -0.8289    0.1560 C.3       1 <0>         0.0136
     11 C5          1.7163    0.5182    0.4042 C.3       1 <0>        -0.0208
     12 C6          2.0289    1.8693   -0.3058 C.3       1 <0>        -0.0316
     13 C7         -4.4725    0.2809   -0.8784 C.3       1 <0>         0.0193
     14 C8         -3.8573   -1.1136   -0.6125 C.3       1 <0>         0.1508
     15 C9         -3.3632    1.3113   -0.5926 C.3       1 <0>        -0.0024
     16 C10        -0.0833   -1.3951    0.4608 C.3       1 <0>        -0.0488
     17 C11        -1.4514   -1.8884   -0.0461 C.3       1 <0>        -0.0435
     18 C12        -0.4266    2.3611   -0.6617 C.3       1 <0>        -0.0494
     19 C13         2.8456   -0.5031    0.0497 C.3       1 <0>        -0.0002
     20 C14         0.9060    2.9045   -0.1585 C.3       1 <0>        -0.0493
     21 C15         4.1718    0.1298   -0.3961 C.3       1 <0>         0.0190
     22 C16         3.3785    2.4784    0.1182 C.3       1 <0>        -0.0070
     23 C17        -2.8193   -0.6636    1.6715 C.3       1 <0>        -0.0557
     24 C18         4.4934    1.4415    0.3084 C.3       1 <0>         0.1455
     25 C19         1.6820    0.6958    1.9453 C.3       1 <0>        -0.0589
     26 C20        -6.7799   -0.4804   -0.3120 C.3       1 <0>        -0.0299
     27 C21        -6.1761    2.0131   -0.2417 C.3       1 <0>        -0.0299
     28 C22        -5.2582    0.4385    1.4622 C.3       1 <0>        -0.0409
     29 C23         6.4996   -0.4860   -1.0003 C.3       1 <0>        -0.0299
     30 C24         4.7900   -2.2722   -0.5018 C.3       1 <0>        -0.0299
     31 C25        -8.1668    0.0868   -0.0561 C.3       1 <0>        -0.0123
     32 C26        -7.2131    2.0568   -1.3521 C.3       1 <0>        -0.0123
     33 C27         5.6424   -0.7882    1.3580 C.3       1 <0>        -0.0409
     34 C28        -8.4659    1.2677   -0.9774 C.3       1 <0>        -0.0434
     35 C29         7.6050   -1.5330   -0.9443 C.3       1 <0>        -0.0123
     36 C30         5.8997   -3.3146   -0.4465 C.3       1 <0>        -0.0123
     37 C31         7.0927   -2.9200   -1.3060 C.3       1 <0>        -0.0434
     38 C32        -4.5472   -3.3395   -0.2227 C.2       1 <0>         0.3044
     39 C33         6.4463    2.7205    0.6562 C.2       1 <0>         0.3044
     40 C34        -5.5206   -4.1656    0.5623 C.3       1 <0>         0.0332
     41 C35         7.6861    3.2116   -0.0276 C.3       1 <0>         0.0332
     42 H1         -1.8732    0.2106   -1.6154 H         1 <0>         0.0312
     43 H2         -0.9724    1.2595    1.0900 H         1 <0>         0.0306
     44 H3          0.4529   -0.1766   -1.2023 H         1 <0>         0.0309
     45 H4          2.1083    1.6560   -1.3832 H         1 <0>         0.0307
     46 H5         -4.8060    0.3574   -1.9209 H         1 <0>         0.0889
     47 H6         -3.6092   -1.5147   -1.6065 H         1 <0>         0.0797
     48 H7         -3.3041    2.0318   -1.4179 H         1 <0>         0.0324
     49 H8         -3.4423    1.9023    0.3197 H         1 <0>         0.0324
     50 H9          0.6612   -2.1491    0.1795 H         1 <0>         0.0268
     51 H10        -0.0740   -1.3740    1.5524 H         1 <0>         0.0268
     52 H11        -1.7093   -2.8180    0.4746 H         1 <0>         0.0272
     53 H12        -1.3577   -2.1389   -1.1106 H         1 <0>         0.0272
     54 H13        -0.3677    2.2108   -1.7472 H         1 <0>         0.0268
     55 H14        -1.2020    3.1166   -0.4899 H         1 <0>         0.0268
     56 H15         2.4927   -1.1319   -0.7780 H         1 <0>         0.0326
     57 H16         2.9418   -1.1559    0.9217 H         1 <0>         0.0326
     58 H17         0.8045    3.2198    0.8865 H         1 <0>         0.0268
     59 H18         1.1579    3.8063   -0.7303 H         1 <0>         0.0268
     60 H19         4.1426    0.2824   -1.4837 H         1 <0>         0.0889
     61 H20         3.6756    3.2228   -0.6329 H         1 <0>         0.0306
     62 H21         3.2639    3.0478    1.0502 H         1 <0>         0.0306
     63 H22        -1.9015   -0.8816    2.2306 H         1 <0>         0.0236
     64 H23        -3.4850   -1.4199    2.0911 H         1 <0>         0.0236
     65 H24        -2.9808    0.3535    2.0081 H         1 <0>         0.0236
     66 H25         4.5651    1.3014    1.3903 H         1 <0>         0.0791
     67 H26         0.8890    1.3757    2.2676 H         1 <0>         0.0235
     68 H27         1.5205   -0.2560    2.4612 H         1 <0>         0.0235
     69 H28         2.6180    1.0963    2.3416 H         1 <0>         0.0235
     70 H29        -6.6895   -1.3273    0.3685 H         1 <0>         0.0815
     71 H30        -6.6773   -0.8031   -1.3543 H         1 <0>         0.0815
     72 H31        -5.3349    2.6685   -0.4725 H         1 <0>         0.0815
     73 H32        -6.6260    2.3751    0.6911 H         1 <0>         0.0815
     74 H33        -5.1286   -0.5887    1.7654 H         1 <0>         0.0778
     75 H34        -6.1577    0.7077    2.0373 H         1 <0>         0.0778
     76 H35        -4.5701    1.2257    1.7503 H         1 <0>         0.0778
     77 H36         6.1475   -0.3543   -2.0294 H         1 <0>         0.0815
     78 H37         6.9708    0.4183   -0.6392 H         1 <0>         0.0815
     79 H38         4.3816   -2.2162   -1.5181 H         1 <0>         0.0815
     80 H39         4.0242   -2.6029    0.2028 H         1 <0>         0.0815
     81 H40        -8.9254   -0.6903   -0.2060 H         1 <0>         0.0317
     82 H41        -8.2575    0.4056    0.9894 H         1 <0>         0.0317
     83 H42        -7.4913    3.0952   -1.5655 H         1 <0>         0.0317
     84 H43        -6.7869    1.6554   -2.2793 H         1 <0>         0.0317
     85 H44         6.2554    0.0926    1.5600 H         1 <0>         0.0778
     86 H45         6.2558   -1.6521    1.6238 H         1 <0>         0.0778
     87 H46         4.7386   -0.8188    1.9704 H         1 <0>         0.0778
     88 H47        -9.1910    1.9263   -0.4842 H         1 <0>         0.0269
     89 H48        -8.9484    0.9136   -1.8964 H         1 <0>         0.0269
     90 H49         8.0534   -1.5576    0.0563 H         1 <0>         0.0317
     91 H50         8.4076   -1.2511   -1.6359 H         1 <0>         0.0317
     92 H51         5.5050   -4.2731   -0.8045 H         1 <0>         0.0317
     93 H52         6.2254   -3.4922    0.5840 H         1 <0>         0.0317
     94 H53         6.8011   -2.9358   -2.3634 H         1 <0>         0.0269
     95 H54         7.8958   -3.6559   -1.1868 H         1 <0>         0.0269
     96 H55        -5.4201   -3.9434    1.6279 H         1 <0>         0.0342
     97 H56        -5.3022   -5.2263    0.4096 H         1 <0>         0.0342
     98 H57        -6.5381   -3.9613    0.2208 H         1 <0>         0.0342
     99 H58         8.3772    2.3809   -0.1875 H         1 <0>         0.0342
    100 H59         8.1724    3.9621    0.6022 H         1 <0>         0.0342
    101 H60         7.4264    3.6842   -0.9785 H         1 <0>         0.0342
@<TRIPOS>BOND
     1    1   14 1
     2    1   38 1
     3    2   24 1
     4    2   39 1
     5    3   38 2
     6    4   39 2
     7    5   13 1
     8    5   26 1
     9    5   27 1
    10    5   28 1
    11    6   21 1
    12    6   29 1
    13    6   30 1
    14    6   33 1
    15    7    8 1
    16    7   10 1
    17    7   15 1
    18    7   42 1
    19    8    9 1
    20    8   18 1
    21    8   43 1
    22    9   11 1
    23    9   16 1
    24    9   44 1
    25   10   14 1
    26   10   17 1
    27   10   23 1
    28   11   12 1
    29   11   19 1
    30   11   25 1
    31   12   20 1
    32   12   22 1
    33   12   45 1
    34   13   14 1
    35   13   15 1
    36   13   46 1
    37   14   47 1
    38   15   48 1
    39   15   49 1
    40   16   17 1
    41   16   50 1
    42   16   51 1
    43   17   52 1
    44   17   53 1
    45   18   20 1
    46   18   54 1
    47   18   55 1
    48   19   21 1
    49   19   56 1
    50   19   57 1
    51   20   58 1
    52   20   59 1
    53   21   24 1
    54   21   60 1
    55   22   24 1
    56   22   61 1
    57   22   62 1
    58   23   63 1
    59   23   64 1
    60   23   65 1
    61   24   66 1
    62   25   67 1
    63   25   68 1
    64   25   69 1
    65   26   31 1
    66   26   70 1
    67   26   71 1
    68   27   32 1
    69   27   72 1
    70   27   73 1
    71   28   74 1
    72   28   75 1
    73   28   76 1
    74   29   35 1
    75   29   77 1
    76   29   78 1
    77   30   36 1
    78   30   79 1
    79   30   80 1
    80   31   34 1
    81   31   81 1
    82   31   82 1
    83   32   34 1
    84   32   83 1
    85   32   84 1
    86   33   85 1
    87   33   86 1
    88   33   87 1
    89   34   88 1
    90   34   89 1
    91   35   37 1
    92   35   90 1
    93   35   91 1
    94   36   37 1
    95   36   92 1
    96   36   93 1
    97   37   94 1
    98   37   95 1
    99   38   40 1
   100   39   41 1
   101   40   96 1
   102   40   97 1
   103   40   98 1
   104   41   99 1
   105   41  100 1
   106   41  101 1
