@<TRIPOS>MOLECULE
DB01198
   44    47     0     0     0
SMALL
USER_CHARGES

@<TRIPOS>ATOM
      1 Cl1        -6.7747    3.2945    0.4154 Cl        1 <0>        -0.0820
      2 O1         -0.6665    0.2682   -0.7041 O.3       1 <0>        -0.4218
      3 O2          0.5147   -0.2353   -2.5957 O.2       1 <0>        -0.2262
      4 O3         -3.2104   -2.1966    1.9619 O.2       1 <0>        -0.2677
      5 N1          1.5436    0.8978   -0.8472 N.am      1 <0>        -0.2649
      6 N2          3.9508    1.4756    0.5838 N.3       1 <0>        -0.3024
      7 N3         -2.6302   -0.8130    0.1150 N.am      1 <0>        -0.2080
      8 N4          0.1840   -2.6510   -1.2344 N.ar      1 <0>        -0.2506
      9 N5         -0.9961   -3.8550    1.0700 N.ar      1 <0>        -0.2469
     10 N6         -4.5531    0.0747    1.1670 N.ar      1 <0>        -0.2384
     11 C1          1.4808    1.4951    0.4883 C.3       1 <0>         0.0306
     12 C2          2.7938    1.1224   -1.5679 C.3       1 <0>         0.0306
     13 C3          2.7186    1.1348    1.3109 C.3       1 <0>         0.0146
     14 C4          4.0023    0.7656   -0.7031 C.3       1 <0>         0.0146
     15 C5         -1.5595   -0.8355   -0.8935 C.3       1 <0>         0.2247
     16 C6          0.4661    0.2674   -1.4744 C.2       1 <0>         0.4049
     17 C7          5.1278    1.1595    1.3919 C.3       1 <0>        -0.0126
     18 C8         -0.8524   -2.1148   -0.5810 C.ar      1 <0>         0.1311
     19 C9         -1.4050   -2.7073    0.5261 C.ar      1 <0>         0.1525
     20 C10        -2.5263   -1.9066    0.9973 C.2       1 <0>         0.2753
     21 C11        -3.6186    0.1629    0.1882 C.ar      1 <0>         0.1309
     22 C12        -3.5920    1.1839   -0.7543 C.ar      1 <0>        -0.0198
     23 C13         0.6269   -3.8178   -0.7069 C.ar      1 <0>         0.0462
     24 C14         0.0523   -4.4042    0.4169 C.ar      1 <0>         0.0465
     25 C15        -4.5753    2.1649   -0.6888 C.ar      1 <0>        -0.0387
     26 C16        -5.4928    1.0460    1.1990 C.ar      1 <0>         0.0480
     27 C17        -5.5476    2.1019    0.3033 C.ar      1 <0>         0.0592
     28 H1          0.5818    1.1737    1.0225 H         1 <0>         0.0478
     29 H2          1.4114    2.5812    0.3519 H         1 <0>         0.0478
     30 H3          2.8199    2.1830   -1.8468 H         1 <0>         0.0478
     31 H4          2.8133    0.5401   -2.4950 H         1 <0>         0.0478
     32 H5          2.6767    1.6859    2.2580 H         1 <0>         0.0442
     33 H6          2.6978    0.0632    1.5512 H         1 <0>         0.0442
     34 H7          4.0303   -0.3206   -0.5430 H         1 <0>         0.0442
     35 H8          4.9122    1.0424   -1.2488 H         1 <0>         0.0442
     36 H9         -1.9922   -0.8512   -1.9010 H         1 <0>         0.1030
     37 H10         5.1105    1.7216    2.3322 H         1 <0>         0.0391
     38 H11         6.0439    1.4533    0.8677 H         1 <0>         0.0391
     39 H12         5.1935    0.0916    1.6295 H         1 <0>         0.0391
     40 H13        -2.8563    1.2596   -1.5460 H         1 <0>         0.0652
     41 H14         1.4672   -4.2756   -1.2156 H         1 <0>         0.0845
     42 H15         0.4249   -5.3384    0.8203 H         1 <0>         0.0845
     43 H16        -4.5741    2.9713   -1.4174 H         1 <0>         0.0634
     44 H17        -6.2223    0.9406    1.9963 H         1 <0>         0.0845
@<TRIPOS>BOND
     1    1   27 1
     2    2   15 1
     3    2   16 1
     4    3   16 2
     5    4   20 2
     6    5   11 1
     7    5   12 1
     8    5   16 am
     9    6   13 1
    10    6   14 1
    11    6   17 1
    12    7   15 1
    13    7   20 am
    14    7   21 1
    15    8   18 ar
    16    8   23 ar
    17    9   19 ar
    18    9   24 ar
    19   10   21 ar
    20   10   26 ar
    21   11   13 1
    22   11   28 1
    23   11   29 1
    24   12   14 1
    25   12   30 1
    26   12   31 1
    27   13   32 1
    28   13   33 1
    29   14   34 1
    30   14   35 1
    31   15   18 1
    32   15   36 1
    33   17   37 1
    34   17   38 1
    35   17   39 1
    36   18   19 ar
    37   19   20 1
    38   21   22 ar
    39   22   25 ar
    40   22   40 1
    41   23   24 ar
    42   23   41 1
    43   24   42 1
    44   25   27 ar
    45   25   43 1
    46   26   27 ar
    47   26   44 1
