@<TRIPOS>MOLECULE
DB01005
    9     8     0     0     0
SMALL
USER_CHARGES

@<TRIPOS>ATOM
      1 O1          2.0497   -0.1492    0.2985 O.3       1 <0>        -0.2940
      2 O2         -0.1400   -1.7309    0.1837 O.2       1 <0>        -0.2509
      3 N1          0.7678    0.3950    0.1408 N.am      1 <0>        -0.1815
      4 N2         -1.4933    0.1045   -0.0719 N.am      1 <0>        -0.3117
      5 C1         -0.2672   -0.5106    0.0963 C.2       1 <0>         0.3198
      6 H1          0.6710    1.3971    0.2533 H         1 <0>         0.1838
      7 H2         -1.5750    1.1130   -0.1445 H         1 <0>         0.1465
      8 H3         -2.3504   -0.4356   -0.1267 H         1 <0>         0.1465
      9 H4          2.3372   -0.1833   -0.6296 H         1 <0>         0.2414
@<TRIPOS>BOND
     1    1    3 1
     2    1    9 1
     3    2    5 2
     4    3    5 am
     5    3    6 1
     6    4    5 am
     7    4    7 1
     8    4    8 1
