@<TRIPOS>MOLECULE
DB01259
   66    70     0     0     0
SMALL
USER_CHARGES

@<TRIPOS>ATOM
      1 Cl1         3.4071   -0.0599   -2.6572 Cl        1 <0>        -0.0797
      2 S1          0.0506   -3.1110   -0.1559 S.o2      1 <0>        -0.0326
      3 F1          7.6588   -2.9595   -0.1898 F         1 <0>        -0.2055
      4 O1         -4.8346   -0.7900   -0.2962 O.3       1 <0>        -0.4584
      5 O2          0.3096   -3.2264   -1.5810 O.2       1 <0>        -0.1746
      6 O3          0.0348   -1.8093    0.4898 O.2       1 <0>        -0.1746
      7 O4          4.6583    1.5900   -0.4770 O.3       1 <0>        -0.4859
      8 N1         -3.9025   -3.8514   -0.1428 N.3       1 <0>        -0.3078
      9 N2         -0.8533    2.1560   -0.8967 N.pl3     1 <0>        -0.2988
     10 N3         -3.3535    5.3496   -0.0726 N.ar      1 <0>        -0.2353
     11 N4         -1.2157    4.4764   -0.7609 N.ar      1 <0>        -0.2200
     12 C1         -2.6510   -3.1702   -0.4161 C.3       1 <0>         0.0157
     13 C2         -1.4788   -3.9199    0.1948 C.3       1 <0>         0.0779
     14 C3         -5.0237   -3.1371   -0.7767 C.3       1 <0>         0.0546
     15 C4         -5.4500   -1.9646    0.0003 C.2       1 <0>         0.1195
     16 C5         -4.8461    1.4827    0.3691 C.ar      1 <0>         0.0181
     17 C6         -5.3714    0.1487    0.5270 C.2       1 <0>         0.1353
     18 C7         -3.0261    2.9773   -0.1976 C.ar      1 <0>         0.0411
     19 C8         -3.5326    1.6747   -0.0474 C.ar      1 <0>        -0.0386
     20 C9         -6.3738   -1.7861    1.0039 C.2       1 <0>        -0.0188
     21 C10        -6.3226   -0.4137    1.3459 C.2       1 <0>        -0.0156
     22 C11        -3.8278    4.0994    0.0675 C.ar      1 <0>         0.0760
     23 C12        -5.6498    2.5858    0.6346 C.ar      1 <0>        -0.0490
     24 C13        -1.7224    3.2383   -0.6102 C.ar      1 <0>         0.1339
     25 C14         1.2497   -4.1151    0.6903 C.3       1 <0>         0.0545
     26 C15        -5.1386    3.8782    0.4830 C.ar      1 <0>        -0.0349
     27 C16         0.5391    2.0077   -0.7967 C.ar      1 <0>         0.0340
     28 C17        -2.0734    5.4702   -0.4794 C.ar      1 <0>         0.1187
     29 C18         1.2139    1.1520   -1.6674 C.ar      1 <0>        -0.0186
     30 C19         1.2475    2.7164    0.1735 C.ar      1 <0>        -0.0370
     31 C20         3.3060    1.7138   -0.5975 C.ar      1 <0>         0.1393
     32 C21         2.5975    1.0052   -1.5678 C.ar      1 <0>         0.0843
     33 C22         2.6310    2.5693    0.2731 C.ar      1 <0>        -0.0167
     34 C23         5.1561    1.1136    0.7711 C.3       1 <0>         0.1148
     35 C24         6.4523    0.3946    0.5393 C.ar      1 <0>        -0.0077
     36 C25         6.4529   -0.9754    0.2770 C.ar      1 <0>        -0.0201
     37 C26         7.6571    1.0961    0.5867 C.ar      1 <0>        -0.0552
     38 C27         7.6582   -1.6438    0.0619 C.ar      1 <0>         0.1238
     39 C28         8.8624    0.4278    0.3717 C.ar      1 <0>        -0.0587
     40 C29         8.8628   -0.9422    0.1093 C.ar      1 <0>        -0.0264
     41 H1         -2.6624   -2.1550   -0.0040 H         1 <0>         0.0440
     42 H2         -2.4946   -3.0782   -1.4982 H         1 <0>         0.0440
     43 H3         -1.4084   -4.9364   -0.2067 H         1 <0>         0.0512
     44 H4         -1.5778   -3.9754    1.2841 H         1 <0>         0.0512
     45 H5         -4.7926   -2.8684   -1.8147 H         1 <0>         0.0504
     46 H6         -5.8680   -3.8356   -0.8313 H         1 <0>         0.0504
     47 H7         -3.8558   -4.7942   -0.5301 H         1 <0>         0.1224
     48 H8         -2.9028    0.8084   -0.2357 H         1 <0>         0.0632
     49 H9         -7.0055   -2.5482    1.4372 H         1 <0>         0.0652
     50 H10        -6.9089    0.0926    2.0998 H         1 <0>         0.0655
     51 H11        -6.6816    2.4701    0.9577 H         1 <0>         0.0625
     52 H12         2.2369   -3.6797    0.5219 H         1 <0>         0.0464
     53 H13         1.0182   -4.1167    1.7569 H         1 <0>         0.0464
     54 H14         1.2120   -5.1269    0.2830 H         1 <0>         0.0464
     55 H15        -5.7885    4.7249    0.6963 H         1 <0>         0.0639
     56 H16        -1.2940    1.4360   -1.4625 H         1 <0>         0.1536
     57 H17         0.6595    0.5995   -2.4231 H         1 <0>         0.0652
     58 H18         0.7437    3.3798    0.8715 H         1 <0>         0.0637
     59 H19        -1.6971    6.4799   -0.5900 H         1 <0>         0.1048
     60 H20         3.1689    3.1334    1.0304 H         1 <0>         0.0655
     61 H21         4.4393    0.4353    1.2540 H         1 <0>         0.0748
     62 H22         5.3100    1.9635    1.4474 H         1 <0>         0.0748
     63 H23         5.5207   -1.5324    0.2352 H         1 <0>         0.0650
     64 H24         7.6696    2.1640    0.7883 H         1 <0>         0.0621
     65 H25         9.8004    0.9741    0.4080 H         1 <0>         0.0619
     66 H26         9.8010   -1.4628   -0.0582 H         1 <0>         0.0646
@<TRIPOS>BOND
     1    1   32 1
     2    2    5 2
     3    2    6 2
     4    2   13 1
     5    2   25 1
     6    3   38 1
     7    4   15 1
     8    4   17 1
     9    7   31 1
    10    7   34 1
    11    8   12 1
    12    8   14 1
    13    8   47 1
    14    9   24 1
    15    9   27 1
    16    9   56 1
    17   10   22 ar
    18   10   28 ar
    19   11   24 ar
    20   11   28 ar
    21   12   13 1
    22   12   41 1
    23   12   42 1
    24   13   43 1
    25   13   44 1
    26   14   15 1
    27   14   45 1
    28   14   46 1
    29   15   20 2
    30   16   17 1
    31   16   19 ar
    32   16   23 ar
    33   17   21 2
    34   18   19 ar
    35   18   22 ar
    36   18   24 ar
    37   19   48 1
    38   20   21 1
    39   20   49 1
    40   21   50 1
    41   22   26 ar
    42   23   26 ar
    43   23   51 1
    44   25   52 1
    45   25   53 1
    46   25   54 1
    47   26   55 1
    48   27   29 ar
    49   27   30 ar
    50   28   59 1
    51   29   32 ar
    52   29   57 1
    53   30   33 ar
    54   30   58 1
    55   31   32 ar
    56   31   33 ar
    57   33   60 1
    58   34   35 1
    59   34   61 1
    60   34   62 1
    61   35   36 ar
    62   35   37 ar
    63   36   38 ar
    64   36   63 1
    65   37   39 ar
    66   37   64 1
    67   38   40 ar
    68   39   40 ar
    69   39   65 1
    70   40   66 1
