@<TRIPOS>MOLECULE
DB01191
   32    32     0     0     0
SMALL
USER_CHARGES

@<TRIPOS>ATOM
      1 F1         -5.4701    1.2989    0.3604 F         1 <0>        -0.1659
      2 F2         -3.7415    2.5917    0.5714 F         1 <0>        -0.1659
      3 F3         -4.4058    1.9833   -1.4079 F         1 <0>        -0.1659
      4 N1          2.5756   -0.1856   -0.5260 N.3       1 <0>        -0.3135
      5 C1          1.2311   -0.2028    0.0577 C.3       1 <0>         0.0088
      6 C2          0.2107   -0.6228   -1.0159 C.3       1 <0>        -0.0125
      7 C3         -1.2064   -0.7106   -0.5019 C.ar      1 <0>        -0.0454
      8 C4          0.9391    1.1828    0.6339 C.3       1 <0>        -0.0494
      9 C5          3.5673    0.1481    0.4827 C.3       1 <0>        -0.0067
     10 C6         -2.0198    0.4101   -0.5572 C.ar      1 <0>        -0.0469
     11 C7         -1.6679   -1.9108    0.0151 C.ar      1 <0>        -0.0585
     12 C8         -3.3291    0.3283   -0.0830 C.ar      1 <0>         0.0551
     13 C9         -2.9770   -1.9925    0.4892 C.ar      1 <0>        -0.0610
     14 C10        -3.8076   -0.8730    0.4401 C.ar      1 <0>        -0.0501
     15 C11         4.9667    0.1672   -0.1086 C.3       1 <0>        -0.0526
     16 C12        -4.2179    1.5248   -0.1362 C.3       1 <0>         0.4174
     17 H1          1.1929   -0.9374    0.8733 H         1 <0>         0.0461
     18 H2          0.4939   -1.5971   -1.4381 H         1 <0>         0.0328
     19 H3          0.2421    0.0774   -1.8626 H         1 <0>         0.0328
     20 H4          2.7868   -1.0987   -0.9281 H         1 <0>         0.1222
     21 H5         -0.0854    1.2557    1.0085 H         1 <0>         0.0245
     22 H6          1.0754    1.9728   -0.1134 H         1 <0>         0.0245
     23 H7          1.5493    1.4190    1.5109 H         1 <0>         0.0245
     24 H8          3.4248    1.1502    0.8950 H         1 <0>         0.0421
     25 H9          3.5408   -0.5717    1.3093 H         1 <0>         0.0421
     26 H10        -1.6519    1.3451   -0.9719 H         1 <0>         0.0626
     27 H11        -1.0278   -2.7873    0.0596 H         1 <0>         0.0620
     28 H12        -3.3492   -2.9276    0.8970 H         1 <0>         0.0618
     29 H13        -4.8243   -0.9564    0.8141 H         1 <0>         0.0623
     30 H14         5.2378   -0.8132   -0.5146 H         1 <0>         0.0242
     31 H15         5.0466    0.9054   -0.9139 H         1 <0>         0.0242
     32 H16         5.7009    0.4267    0.6611 H         1 <0>         0.0242
@<TRIPOS>BOND
     1    1   16 1
     2    2   16 1
     3    3   16 1
     4    4    5 1
     5    4    9 1
     6    4   20 1
     7    5    6 1
     8    5    8 1
     9    5   17 1
    10    6    7 1
    11    6   18 1
    12    6   19 1
    13    7   10 ar
    14    7   11 ar
    15    8   21 1
    16    8   22 1
    17    8   23 1
    18    9   15 1
    19    9   24 1
    20    9   25 1
    21   10   12 ar
    22   10   26 1
    23   11   13 ar
    24   11   27 1
    25   12   14 ar
    26   12   16 1
    27   13   14 ar
    28   13   28 1
    29   14   29 1
    30   15   30 1
    31   15   31 1
    32   15   32 1
