@<TRIPOS>MOLECULE
DB01064
   32    32     0     0     0
SMALL
USER_CHARGES

@<TRIPOS>ATOM
      1 O1          0.0305    0.5913   -2.1295 O.3       1 <0>        -0.3859
      2 O2          4.8754    1.4234    0.7625 O.3       1 <0>        -0.5033
      3 O3          5.3734   -1.2956    0.4765 O.3       1 <0>        -0.5033
      4 N1         -2.1298    0.6645   -0.2278 N.3       1 <0>        -0.3110
      5 C1          0.2739    0.7936   -0.7380 C.3       1 <0>         0.0927
      6 C2         -0.8212    0.1186    0.0969 C.3       1 <0>         0.0263
      7 C3         -3.1725    0.0179    0.5675 C.3       1 <0>         0.0021
      8 C4          1.6421    0.2364   -0.4115 C.ar      1 <0>        -0.0143
      9 C5         -3.1874   -1.4843    0.2995 C.3       1 <0>        -0.0499
     10 C6         -4.5236    0.6462    0.2406 C.3       1 <0>        -0.0499
     11 C7          2.6342    1.0959    0.0281 C.ar      1 <0>        -0.0109
     12 C8          1.8725   -1.1203   -0.5601 C.ar      1 <0>        -0.0524
     13 C9          3.8958    0.5824    0.3286 C.ar      1 <0>         0.1586
     14 C10         3.1340   -1.6338   -0.2597 C.ar      1 <0>        -0.0162
     15 C11         4.1456   -0.7824    0.1848 C.ar      1 <0>         0.1582
     16 H1          0.2572    1.8765   -0.5618 H         1 <0>         0.0656
     17 H2         -0.6021    0.2438    1.1648 H         1 <0>         0.0453
     18 H3         -0.8017   -0.9490   -0.1349 H         1 <0>         0.0453
     19 H4         -2.9824    0.1855    1.6355 H         1 <0>         0.0455
     20 H5         -2.1369    1.6692   -0.0542 H         1 <0>         0.1223
     21 H6         -4.0982   -1.9342    0.7123 H         1 <0>         0.0245
     22 H7         -3.1752   -1.7081   -0.7734 H         1 <0>         0.0245
     23 H8         -2.3514   -2.0041    0.7783 H         1 <0>         0.0245
     24 H9         -4.5192    1.7218    0.4497 H         1 <0>         0.0245
     25 H10        -5.3176    0.1958    0.8460 H         1 <0>         0.0245
     26 H11        -4.7859    0.5073   -0.8143 H         1 <0>         0.0245
     27 H12         2.4381    2.1588    0.1398 H         1 <0>         0.0659
     28 H13         1.1053   -1.7981   -0.9214 H         1 <0>         0.0622
     29 H14        -0.8666    0.9163   -2.3173 H         1 <0>         0.2103
     30 H15         3.3236   -2.6972   -0.3774 H         1 <0>         0.0655
     31 H16         4.5222    2.3288    0.8012 H         1 <0>         0.2923
     32 H17         5.9479   -0.5669    0.7688 H         1 <0>         0.2923
@<TRIPOS>BOND
     1    1    5 1
     2    1   29 1
     3    2   13 1
     4    2   31 1
     5    3   15 1
     6    3   32 1
     7    4    6 1
     8    4    7 1
     9    4   20 1
    10    5    6 1
    11    5    8 1
    12    5   16 1
    13    6   17 1
    14    6   18 1
    15    7    9 1
    16    7   10 1
    17    7   19 1
    18    8   11 ar
    19    8   12 ar
    20    9   21 1
    21    9   22 1
    22    9   23 1
    23   10   24 1
    24   10   25 1
    25   10   26 1
    26   11   13 ar
    27   11   27 1
    28   12   14 ar
    29   12   28 1
    30   13   15 ar
    31   14   15 ar
    32   14   30 1
