@<TRIPOS>MOLECULE
DB01107
   30    30     0     0     0
SMALL
USER_CHARGES

@<TRIPOS>ATOM
      1 O1          0.7705   -0.9918    1.8758 O.2       1 <0>        -0.2960
      2 O2         -1.5382    0.3498   -2.0671 O.2       1 <0>        -0.2747
      3 N1          0.6185    0.9970   -1.6961 N.am      1 <0>        -0.3138
      4 C1         -0.6393   -0.0562    0.1511 C.3       1 <0>         0.1045
      5 C2          1.9634   -0.2002   -0.0585 C.3       1 <0>         0.0312
      6 C3          0.7096   -0.4572    0.7664 C.2       1 <0>         0.1524
      7 C4         -1.2133    1.0953    0.9897 C.3       1 <0>        -0.0351
      8 C5         -1.5793   -1.2698    0.2282 C.3       1 <0>        -0.0351
      9 C6         -0.5715    0.4216   -1.3063 C.2       1 <0>         0.2264
     10 C7          1.7719    1.0960   -0.8310 C.3       1 <0>         0.0209
     11 C8          3.2087   -0.1266    0.8176 C.3       1 <0>        -0.0542
     12 C9         -2.5650    1.5293    0.4655 C.3       1 <0>        -0.0639
     13 C10        -0.9950   -2.4570   -0.5053 C.3       1 <0>        -0.0639
     14 H1          2.0635   -1.0421   -0.7553 H         1 <0>         0.0390
     15 H2         -0.5351    1.9574    0.9827 H         1 <0>         0.0277
     16 H3         -1.3138    0.7940    2.0403 H         1 <0>         0.0277
     17 H4         -2.5573   -1.0693   -0.2215 H         1 <0>         0.0277
     18 H5         -1.7645   -1.5546    1.2716 H         1 <0>         0.0277
     19 H6          1.6146    1.9505   -0.1638 H         1 <0>         0.0469
     20 H7          2.6384    1.3101   -1.4653 H         1 <0>         0.0469
     21 H8          0.6839    1.3770   -2.6354 H         1 <0>         0.1487
     22 H9          3.3711   -1.0718    1.3467 H         1 <0>         0.0237
     23 H10         4.0994    0.0764    0.2141 H         1 <0>         0.0237
     24 H11         3.1185    0.6626    1.5724 H         1 <0>         0.0237
     25 H12        -2.5193    1.9734   -0.5318 H         1 <0>         0.0230
     26 H13        -3.3172    0.7378    0.4779 H         1 <0>         0.0230
     27 H14        -2.9531    2.3189    1.1209 H         1 <0>         0.0230
     28 H15        -0.7928   -2.2415   -1.5588 H         1 <0>         0.0230
     29 H16        -0.0704   -2.8189   -0.0459 H         1 <0>         0.0230
     30 H17        -1.7066   -3.2900   -0.4789 H         1 <0>         0.0230
@<TRIPOS>BOND
     1    1    6 2
     2    2    9 2
     3    3    9 am
     4    3   10 1
     5    3   21 1
     6    4    6 1
     7    4    7 1
     8    4    8 1
     9    4    9 1
    10    5    6 1
    11    5   10 1
    12    5   11 1
    13    5   14 1
    14    7   12 1
    15    7   15 1
    16    7   16 1
    17    8   13 1
    18    8   17 1
    19    8   18 1
    20   10   19 1
    21   10   20 1
    22   11   22 1
    23   11   23 1
    24   11   24 1
    25   12   25 1
    26   12   26 1
    27   12   27 1
    28   13   28 1
    29   13   29 1
    30   13   30 1
