@<TRIPOS>MOLECULE
DB01246
   43    45     0     0     0
SMALL
USER_CHARGES

@<TRIPOS>ATOM
      1 S1          3.4442   -1.3010    1.2833 S.3       1 <0>        -0.0857
      2 N1          1.2211   -0.0494   -0.4932 N.pl3     1 <0>        -0.2980
      3 N2         -3.5700    0.8188    0.5348 N.3       1 <0>        -0.3080
      4 C1         -1.1524    0.4605    0.0692 C.3       1 <0>        -0.0150
      5 C2         -0.0070    0.6162   -0.9467 C.3       1 <0>         0.0211
      6 C3         -2.4814    1.0834   -0.3999 C.3       1 <0>         0.0023
      7 C4         -0.7633    1.0326    1.4371 C.3       1 <0>        -0.0598
      8 C5          2.3602    0.7647   -0.2690 C.ar      1 <0>         0.0479
      9 C6          1.1935   -1.4624   -0.3780 C.ar      1 <0>         0.0479
     10 C7          3.4449    0.2995    0.5007 C.ar      1 <0>         0.0341
     11 C8          2.1629   -2.1481    0.3805 C.ar      1 <0>         0.0341
     12 C9          2.4792    2.0551   -0.8298 C.ar      1 <0>        -0.0393
     13 C10         0.2247   -2.2480   -1.0401 C.ar      1 <0>        -0.0393
     14 C11        -3.8008   -0.6209    0.6618 C.3       1 <0>        -0.0130
     15 C12        -4.7947    1.4939    0.1028 C.3       1 <0>        -0.0130
     16 C13         4.5754    1.1083    0.7140 C.ar      1 <0>        -0.0462
     17 C14         2.1356   -3.5502    0.4852 C.ar      1 <0>        -0.0462
     18 C15         3.6072    2.8528   -0.6188 C.ar      1 <0>        -0.0599
     19 C16         0.2050   -3.6415   -0.9367 C.ar      1 <0>        -0.0599
     20 C17         4.6549    2.3802    0.1566 C.ar      1 <0>        -0.0606
     21 C18         1.1595   -4.2932   -0.1706 C.ar      1 <0>        -0.0606
     22 H1         -1.3092   -0.6093    0.2159 H         1 <0>         0.0326
     23 H2         -0.3007    0.2524   -1.9390 H         1 <0>         0.0471
     24 H3          0.0842    1.6946   -1.0844 H         1 <0>         0.0471
     25 H4         -2.7263    0.7032   -1.4009 H         1 <0>         0.0429
     26 H5         -2.3377    2.1673   -0.5010 H         1 <0>         0.0429
     27 H6          0.1314    0.5462    1.8382 H         1 <0>         0.0233
     28 H7         -1.5503    0.8874    2.1837 H         1 <0>         0.0233
     29 H8         -0.5591    2.1069    1.3693 H         1 <0>         0.0233
     30 H9          1.7410    2.4777   -1.5031 H         1 <0>         0.0636
     31 H10        -0.5381   -1.8062   -1.6750 H         1 <0>         0.0636
     32 H11        -4.7202   -0.8098    1.2297 H         1 <0>         0.0391
     33 H12        -3.0134   -1.1162    1.2374 H         1 <0>         0.0391
     34 H13        -3.9060   -1.1169   -0.3101 H         1 <0>         0.0391
     35 H14        -4.6351    2.5759    0.0357 H         1 <0>         0.0391
     36 H15        -5.5971    1.3424    0.8336 H         1 <0>         0.0391
     37 H16        -5.1427    1.1348   -0.8724 H         1 <0>         0.0391
     38 H17         5.4088    0.7542    1.3175 H         1 <0>         0.0629
     39 H18         2.8770   -4.0796    1.0802 H         1 <0>         0.0629
     40 H19         3.6686    3.8369   -1.0746 H         1 <0>         0.0618
     41 H20        -0.5559   -4.2130   -1.4604 H         1 <0>         0.0618
     42 H21         5.5341    2.9952    0.3225 H         1 <0>         0.0618
     43 H22         1.1480   -5.3755   -0.0861 H         1 <0>         0.0618
@<TRIPOS>BOND
     1    1   10 1
     2    1   11 1
     3    2    5 1
     4    2    8 1
     5    2    9 1
     6    3    6 1
     7    3   14 1
     8    3   15 1
     9    4    5 1
    10    4    6 1
    11    4    7 1
    12    4   22 1
    13    5   23 1
    14    5   24 1
    15    6   25 1
    16    6   26 1
    17    7   27 1
    18    7   28 1
    19    7   29 1
    20    8   10 ar
    21    8   12 ar
    22    9   11 ar
    23    9   13 ar
    24   10   16 ar
    25   11   17 ar
    26   12   18 ar
    27   12   30 1
    28   13   19 ar
    29   13   31 1
    30   14   32 1
    31   14   33 1
    32   14   34 1
    33   15   35 1
    34   15   36 1
    35   15   37 1
    36   16   20 ar
    37   16   38 1
    38   17   21 ar
    39   17   39 1
    40   18   20 ar
    41   18   40 1
    42   19   21 ar
    43   19   41 1
    44   20   42 1
    45   21   43 1
