@<TRIPOS>MOLECULE
DB01102
   46    47     0     0     0
SMALL
USER_CHARGES

@<TRIPOS>ATOM
      1 O1          3.5459    1.2494   -1.8745 O.3       1 <0>        -0.3859
      2 O2          6.3889   -2.8112   -0.3880 O.3       1 <0>        -0.5033
      3 O3          8.2233   -1.4824    1.2231 O.3       1 <0>        -0.5033
      4 O4         -8.6162   -1.6401    1.0794 O.3       1 <0>        -0.5068
      5 N1          1.0501    1.0541   -0.4510 N.3       1 <0>        -0.3132
      6 C1         -1.3999    1.0521   -0.5145 C.3       1 <0>        -0.0401
      7 C2         -2.6655    0.2954   -0.1051 C.3       1 <0>        -0.0479
      8 C3         -0.1429    0.3129   -0.0592 C.3       1 <0>        -0.0040
      9 C4          2.2562    0.3653   -0.0142 C.3       1 <0>         0.0261
     10 C5         -3.9262    1.0522   -0.5291 C.3       1 <0>        -0.0276
     11 C6          3.5107    1.1305   -0.4529 C.3       1 <0>         0.0927
     12 C7         -5.1789    0.3325   -0.0992 C.ar      1 <0>        -0.0471
     13 C8          4.7735    0.4272   -0.0059 C.ar      1 <0>        -0.0143
     14 C9          4.9984   -0.8782   -0.4075 C.ar      1 <0>        -0.0109
     15 C10         5.6762    1.1040    0.7959 C.ar      1 <0>        -0.0524
     16 C11        -5.7572   -0.5968   -0.9506 C.ar      1 <0>        -0.0551
     17 C12        -5.7335    0.6125    1.1408 C.ar      1 <0>        -0.0551
     18 C13         6.1622   -1.5268    0.0054 C.ar      1 <0>         0.1586
     19 C14         6.8400    0.4555    1.2089 C.ar      1 <0>        -0.0162
     20 C15        -6.9169   -1.2619   -0.5529 C.ar      1 <0>        -0.0199
     21 C16        -6.8933   -0.0528    1.5386 C.ar      1 <0>        -0.0199
     22 C17         7.0830   -0.8600    0.8136 C.ar      1 <0>         0.1582
     23 C18        -7.4851   -0.9899    0.6918 C.ar      1 <0>         0.1169
     24 H1         -1.4168    2.0575   -0.0750 H         1 <0>         0.0278
     25 H2         -1.3865    1.1762   -1.6048 H         1 <0>         0.0278
     26 H3         -2.6680    0.1493    0.9826 H         1 <0>         0.0269
     27 H4         -2.6593   -0.7041   -0.5578 H         1 <0>         0.0269
     28 H5         -0.1311   -0.6897   -0.5042 H         1 <0>         0.0424
     29 H6         -0.1697    0.1970    1.0309 H         1 <0>         0.0424
     30 H7          2.2575    0.2594    1.0780 H         1 <0>         0.0453
     31 H8          2.2517   -0.6409   -0.4497 H         1 <0>         0.0453
     32 H9         -3.9211    2.0637   -0.1024 H         1 <0>         0.0313
     33 H10        -3.9353    1.1890   -1.6181 H         1 <0>         0.0313
     34 H11         3.4749    2.1487   -0.0457 H         1 <0>         0.0656
     35 H12         1.0675    1.1713   -1.4638 H         1 <0>         0.1220
     36 H13         4.2932   -1.3975   -1.0500 H         1 <0>         0.0659
     37 H14         5.4979    2.1282    1.1101 H         1 <0>         0.0622
     38 H15        -5.3213   -0.8168   -1.9210 H         1 <0>         0.0621
     39 H16        -5.2791    1.3392    1.8082 H         1 <0>         0.0621
     40 H17         4.4100    1.6179   -2.1262 H         1 <0>         0.2103
     41 H18         7.5534    0.9804    1.8384 H         1 <0>         0.0655
     42 H19        -7.3678   -1.9902   -1.2216 H         1 <0>         0.0654
     43 H20        -7.3307    0.1628    2.5097 H         1 <0>         0.0654
     44 H21         5.6464   -3.1098   -0.9407 H         1 <0>         0.2923
     45 H22         8.2278   -2.3841    0.8575 H         1 <0>         0.2923
     46 H23        -8.8868   -2.2509    0.3724 H         1 <0>         0.2921
@<TRIPOS>BOND
     1    1   11 1
     2    1   40 1
     3    2   18 1
     4    2   44 1
     5    3   22 1
     6    3   45 1
     7    4   23 1
     8    4   46 1
     9    5    8 1
    10    5    9 1
    11    5   35 1
    12    6    7 1
    13    6    8 1
    14    6   24 1
    15    6   25 1
    16    7   10 1
    17    7   26 1
    18    7   27 1
    19    8   28 1
    20    8   29 1
    21    9   11 1
    22    9   30 1
    23    9   31 1
    24   10   12 1
    25   10   32 1
    26   10   33 1
    27   11   13 1
    28   11   34 1
    29   12   16 ar
    30   12   17 ar
    31   13   14 ar
    32   13   15 ar
    33   14   18 ar
    34   14   36 1
    35   15   19 ar
    36   15   37 1
    37   16   20 ar
    38   16   38 1
    39   17   21 ar
    40   17   39 1
    41   18   22 ar
    42   19   22 ar
    43   19   41 1
    44   20   23 ar
    45   20   42 1
    46   21   23 ar
    47   21   43 1
