@<TRIPOS>MOLECULE
DB01353
   31    31     0     0     0
SMALL
USER_CHARGES

@<TRIPOS>ATOM
      1 O1         -0.3775   -1.0680    2.3224 O.2       1 <0>        -0.2742
      2 O2         -0.7084    0.3799   -2.1324 O.2       1 <0>        -0.2742
      3 O3         -3.2297   -3.1408   -0.6144 O.2       1 <0>        -0.2520
      4 N1         -1.8741   -2.0382    0.8796 N.am      1 <0>        -0.2390
      5 N2         -2.0389   -1.3153   -1.3458 N.am      1 <0>        -0.2390
      6 C1         -0.8855    0.1236    0.2725 C.3       1 <0>         0.1232
      7 C2          0.5054    0.7660    0.3779 C.3       1 <0>        -0.0306
      8 C3         -1.9534    1.1522    0.6859 C.3       1 <0>        -0.0334
      9 C4          1.5956   -0.2322    0.0115 C.3       1 <0>        -0.0519
     10 C5         -0.9846   -1.0414    1.2521 C.2       1 <0>         0.2354
     11 C6         -1.1650   -0.2513   -1.1795 C.2       1 <0>         0.2354
     12 C7          2.9760    0.4194    0.0887 C.3       1 <0>        -0.0559
     13 C8         -1.9547    2.3376   -0.2528 C.3       1 <0>        -0.0639
     14 C9         -2.4491   -2.2186   -0.3726 C.2       1 <0>         0.3122
     15 C10         4.0747   -0.5541   -0.3070 C.3       1 <0>        -0.0653
     16 H1          0.6812    1.1411    1.3947 H         1 <0>         0.0280
     17 H2          0.6136    1.6232   -0.2949 H         1 <0>         0.0280
     18 H3         -1.7748    1.4981    1.7122 H         1 <0>         0.0277
     19 H4         -2.9533    0.6992    0.6851 H         1 <0>         0.0277
     20 H5          1.5846   -1.0981    0.6820 H         1 <0>         0.0266
     21 H6          1.4493   -0.6175   -1.0037 H         1 <0>         0.0266
     22 H7          3.1628    0.7780    1.1076 H         1 <0>         0.0263
     23 H8          3.0165    1.2909   -0.5754 H         1 <0>         0.0263
     24 H9         -1.0090    2.8823   -0.2803 H         1 <0>         0.0230
     25 H10        -2.2584    2.0838   -1.2716 H         1 <0>         0.0230
     26 H11        -2.7010    3.0588    0.1034 H         1 <0>         0.0230
     27 H12        -2.0651   -2.7580    1.5711 H         1 <0>         0.1591
     28 H13        -2.3515   -1.5021   -2.2945 H         1 <0>         0.1591
     29 H14         3.9366   -0.9057   -1.3346 H         1 <0>         0.0230
     30 H15         4.0847   -1.4252    0.3560 H         1 <0>         0.0230
     31 H16         5.0531   -0.0676   -0.2433 H         1 <0>         0.0230
@<TRIPOS>BOND
     1    1   10 2
     2    2   11 2
     3    3   14 2
     4    4   10 am
     5    4   14 am
     6    4   27 1
     7    5   11 am
     8    5   14 am
     9    5   28 1
    10    6    7 1
    11    6    8 1
    12    6   10 1
    13    6   11 1
    14    7    9 1
    15    7   16 1
    16    7   17 1
    17    8   13 1
    18    8   18 1
    19    8   19 1
    20    9   12 1
    21    9   20 1
    22    9   21 1
    23   12   15 1
    24   12   22 1
    25   12   23 1
    26   13   24 1
    27   13   25 1
    28   13   26 1
    29   15   29 1
    30   15   30 1
    31   15   31 1
