@<TRIPOS>MOLECULE
DB01059
   41    43     0     0     0
SMALL
USER_CHARGES

@<TRIPOS>ATOM
      1 F1          1.3853   -3.0250    0.6941 F         1 <0>        -0.2035
      2 O1         -3.6383   -3.1234    0.5100 O.2       1 <0>        -0.2865
      3 O2         -6.1412   -2.4253    0.2345 O.co2     1 <0>        -0.5445
      4 O3         -6.5730   -0.2468   -0.3150 O.co2     1 <0>        -0.5445
      5 N1          2.1270   -0.4232    0.0883 N.pl3     1 <0>        -0.3175
      6 N2          4.8135    0.3937   -0.1790 N.4       1 <0>         0.2292
      7 N3         -2.6161    0.7219   -0.3882 N.pl3     1 <0>        -0.3460
      8 C1          2.5000    0.9559    0.4275 C.3       1 <0>         0.0525
      9 C2          3.0035   -1.1139   -0.8698 C.3       1 <0>         0.0525
     10 C3          3.9566    1.0264    0.8643 C.3       1 <0>        -0.0175
     11 C4          4.4557   -1.0335   -0.4226 C.3       1 <0>        -0.0175
     12 C5          0.7802   -0.8031    0.1254 C.ar      1 <0>         0.0677
     13 C6         -0.2141    0.1423   -0.1466 C.ar      1 <0>        -0.0136
     14 C7         -1.5777   -0.2010   -0.1195 C.ar      1 <0>         0.0547
     15 C8          0.4364   -2.1155    0.4314 C.ar      1 <0>         0.1451
     16 C9         -1.8995   -1.5424    0.1944 C.ar      1 <0>         0.0486
     17 C10        -0.9032   -2.4896    0.4671 C.ar      1 <0>        -0.0118
     18 C11        -2.2655    2.1031   -0.7100 C.3       1 <0>         0.0205
     19 C12        -3.3230   -1.9714    0.2402 C.2       1 <0>         0.1983
     20 C13        -3.9311    0.2965   -0.3385 C.2       1 <0>         0.0176
     21 C14        -4.3460   -0.9407   -0.0538 C.2       1 <0>         0.0607
     22 C15        -2.1898    2.9611    0.5360 C.3       1 <0>        -0.0471
     23 C16        -5.8288   -1.2321   -0.0438 C.2       1 <0>         0.0767
     24 H1          1.8846    1.3361    1.2524 H         1 <0>         0.0516
     25 H2          2.3450    1.6084   -0.4412 H         1 <0>         0.0516
     26 H3          2.8880   -0.6474   -1.8569 H         1 <0>         0.0516
     27 H4          2.7418   -2.1706   -0.9888 H         1 <0>         0.0516
     28 H5          4.2941    2.0609    0.9767 H         1 <0>         0.0829
     29 H6          4.1321    0.4840    1.7995 H         1 <0>         0.0829
     30 H7          4.6295   -1.5760    0.5129 H         1 <0>         0.0829
     31 H8          5.1359   -1.4094   -1.1924 H         1 <0>         0.0829
     32 H9          5.8000    0.4536    0.1080 H         1 <0>         0.2015
     33 H10         4.7444    0.9261   -1.0577 H         1 <0>         0.2015
     34 H11         0.0878    1.1561   -0.3834 H         1 <0>         0.0658
     35 H12        -1.1525   -3.5192    0.7083 H         1 <0>         0.0654
     36 H13        -1.3609    2.1925   -1.3202 H         1 <0>         0.0489
     37 H14        -3.0480    2.5278   -1.3545 H         1 <0>         0.0489
     38 H15        -4.6207    1.1040   -0.5599 H         1 <0>         0.0817
     39 H16        -3.1368    2.9462    1.0860 H         1 <0>         0.0247
     40 H17        -1.4052    2.6133    1.2154 H         1 <0>         0.0247
     41 H18        -1.9701    3.9997    0.2695 H         1 <0>         0.0247
@<TRIPOS>BOND
     1    1   15 1
     2    2   19 2
     3    3   23 2
     4    4   23 1
     5    5    8 1
     6    5    9 1
     7    5   12 1
     8    6   10 1
     9    6   11 1
    10    6   32 1
    11    6   33 1
    12    7   14 1
    13    7   18 1
    14    7   20 2
    15    8   10 1
    16    8   24 1
    17    8   25 1
    18    9   11 1
    19    9   26 1
    20    9   27 1
    21   10   28 1
    22   10   29 1
    23   11   30 1
    24   11   31 1
    25   12   13 ar
    26   12   15 ar
    27   13   14 ar
    28   13   34 1
    29   14   16 ar
    30   15   17 ar
    31   16   17 ar
    32   16   19 1
    33   17   35 1
    34   18   22 1
    35   18   36 1
    36   18   37 1
    37   19   21 1
    38   20   21 1
    39   20   38 1
    40   21   23 1
    41   22   39 1
    42   22   40 1
    43   22   41 1
