@<TRIPOS>MOLECULE
DB01333
   43    45     0     0     0
SMALL
USER_CHARGES

@<TRIPOS>ATOM
      1 S1         -1.1909   -0.8653   -0.8780 S.3       1 <0>        -0.1312
      2 O1         -2.4360    3.2322    0.9332 O.2       1 <0>        -0.2731
      3 O2          1.7695    2.0939   -1.7246 O.2       1 <0>        -0.2692
      4 O3         -4.5560    0.9354    2.3887 O.co2     1 <0>        -0.5433
      5 O4         -5.8093    1.5785    0.5861 O.co2     1 <0>        -0.5433
      6 N1         -2.7346    1.1686   -0.1610 N.am      1 <0>        -0.2534
      7 N2          0.2840    1.6786    0.0085 N.am      1 <0>        -0.2968
      8 N3          3.8556    2.2656    0.0838 N.4       1 <0>         0.2305
      9 C1         -1.8151    0.7960   -1.2184 C.3       1 <0>         0.1041
     10 C2         -0.9388    1.9746   -0.7371 C.3       1 <0>         0.1285
     11 C3         -2.1494    2.3381    0.1722 C.2       1 <0>         0.2438
     12 C4         -3.7988    0.4211    0.2273 C.2       1 <0>         0.0596
     13 C5         -2.8513   -1.6224   -0.9432 C.3       1 <0>         0.0184
     14 C6         -3.9188   -0.8725   -0.1505 C.2       1 <0>        -0.0396
     15 C7          2.6728    1.4159    0.4082 C.3       1 <0>         0.0752
     16 C8          1.5548    1.7652   -0.5586 C.2       1 <0>         0.2662
     17 C9          2.9513   -0.0441    0.2918 C.2       1 <0>        -0.0131
     18 C10        -5.1077   -1.7444    0.1731 C.3       1 <0>        -0.0409
     19 C11        -4.8278    1.0424    1.1642 C.2       1 <0>         0.0859
     20 C12         2.8128   -0.8492    1.5621 C.3       1 <0>        -0.0078
     21 C13         3.3037   -0.6107   -0.8760 C.2       1 <0>        -0.0750
     22 C14         3.5914   -2.0757   -1.0367 C.3       1 <0>        -0.0161
     23 C15         3.1003   -2.3134    1.3986 C.2       1 <0>        -0.0834
     24 C16         3.4508   -2.8660    0.2294 C.2       1 <0>        -0.0839
     25 H1         -2.2365    0.9367   -2.2207 H         1 <0>         0.0644
     26 H2         -0.7739    2.7354   -1.5105 H         1 <0>         0.0622
     27 H3          0.2191    1.3823    0.9797 H         1 <0>         0.1497
     28 H4         -2.7400   -2.6370   -0.5461 H         1 <0>         0.0423
     29 H5         -3.1650   -1.7053   -1.9894 H         1 <0>         0.0423
     30 H6          2.3871    1.6977    1.4274 H         1 <0>         0.0999
     31 H7         -5.5332   -2.1534   -0.7497 H         1 <0>         0.0275
     32 H8         -5.9115   -1.2143    0.6904 H         1 <0>         0.0275
     33 H9         -4.8000   -2.5790    0.8119 H         1 <0>         0.0275
     34 H10         4.1828    2.1250   -0.8817 H         1 <0>         0.2005
     35 H11         4.6457    2.0603    0.7101 H         1 <0>         0.2005
     36 H12         3.6366    3.2654    0.1899 H         1 <0>         0.2005
     37 H13         1.7913   -0.7402    1.9458 H         1 <0>         0.0354
     38 H14         3.4970   -0.4462    2.3182 H         1 <0>         0.0354
     39 H15         3.4058   -0.0089   -1.7748 H         1 <0>         0.0577
     40 H16         4.6123   -2.1955   -1.4167 H         1 <0>         0.0350
     41 H17         2.9095   -2.4885   -1.7887 H         1 <0>         0.0350
     42 H18         3.0160   -2.9434    2.2794 H         1 <0>         0.0572
     43 H19         3.6444   -3.9335    0.1821 H         1 <0>         0.0572
@<TRIPOS>BOND
     1    1    9 1
     2    1   13 1
     3    2   11 2
     4    3   16 2
     5    4   19 2
     6    5   19 1
     7    6    9 1
     8    6   11 am
     9    6   12 1
    10    7   10 1
    11    7   16 am
    12    7   27 1
    13    8   15 1
    14    8   34 1
    15    8   35 1
    16    8   36 1
    17    9   10 1
    18    9   25 1
    19   10   11 1
    20   10   26 1
    21   12   14 2
    22   12   19 1
    23   13   14 1
    24   13   28 1
    25   13   29 1
    26   14   18 1
    27   15   16 1
    28   15   17 1
    29   15   30 1
    30   17   20 1
    31   17   21 2
    32   18   31 1
    33   18   32 1
    34   18   33 1
    35   20   23 1
    36   20   37 1
    37   20   38 1
    38   21   22 1
    39   21   39 1
    40   22   24 1
    41   22   40 1
    42   22   41 1
    43   23   24 2
    44   23   42 1
    45   24   43 1
