@<TRIPOS>MOLECULE
DB01050
   33    33     0     0     0
SMALL
USER_CHARGES

@<TRIPOS>ATOM
      1 O1         -4.7528    0.8604   -1.4500 O.3       1 <0>        -0.4802
      2 O2         -2.6315    1.6551   -1.5183 O.2       1 <0>        -0.2503
      3 C1          3.4561    0.0864    0.0205 C.3       1 <0>        -0.0427
      4 C2          2.5460   -0.5625    1.0817 C.3       1 <0>        -0.0253
      5 C3          1.0770   -0.5121    0.7389 C.ar      1 <0>        -0.0471
      6 C4         -1.6211   -0.4201    0.1108 C.ar      1 <0>        -0.0339
      7 C5         -3.0729   -0.3709   -0.2274 C.3       1 <0>         0.0784
      8 C6          3.2560   -0.5345   -1.3643 C.3       1 <0>        -0.0624
      9 C7          3.1840    1.5912   -0.0453 C.3       1 <0>        -0.0624
     10 C8          0.3198    0.5724    1.1526 C.ar      1 <0>        -0.0583
     11 C9          0.5115   -1.5516    0.0173 C.ar      1 <0>        -0.0583
     12 C10        -1.0379    0.6186    0.8366 C.ar      1 <0>        -0.0575
     13 C11        -0.8463   -1.5053   -0.2988 C.ar      1 <0>        -0.0575
     14 C12        -4.0012   -0.3412    1.0039 C.3       1 <0>        -0.0482
     15 C13        -3.4330    0.8166   -1.1270 C.2       1 <0>         0.3119
     16 H1          4.4977   -0.0664    0.3289 H         1 <0>         0.0299
     17 H2          2.7121   -0.0883    2.0582 H         1 <0>         0.0316
     18 H3          2.8447   -1.6105    1.2192 H         1 <0>         0.0316
     19 H4         -3.3284   -1.2656   -0.8118 H         1 <0>         0.0459
     20 H5          2.2802   -0.2946   -1.7980 H         1 <0>         0.0232
     21 H6          3.3676   -1.6230   -1.3262 H         1 <0>         0.0232
     22 H7          4.0147   -0.1527   -2.0570 H         1 <0>         0.0232
     23 H8          3.9390    2.0786   -0.6727 H         1 <0>         0.0232
     24 H9          2.2089    1.8251   -0.4836 H         1 <0>         0.0232
     25 H10         3.2418    2.0488    0.9479 H         1 <0>         0.0232
     26 H11         0.7603    1.3840    1.7245 H         1 <0>         0.0620
     27 H12         1.1026   -2.4049   -0.3020 H         1 <0>         0.0620
     28 H13        -1.6248    1.4715    1.1671 H         1 <0>         0.0621
     29 H14        -1.2847   -2.3239   -0.8635 H         1 <0>         0.0621
     30 H15        -3.7510   -1.1520    1.6969 H         1 <0>         0.0241
     31 H16        -3.9205    0.6063    1.5483 H         1 <0>         0.0241
     32 H17        -5.0504   -0.4643    0.7139 H         1 <0>         0.0241
     33 H18        -4.9635    1.6294   -2.0213 H         1 <0>         0.2951
@<TRIPOS>BOND
     1    1   15 1
     2    1   33 1
     3    2   15 2
     4    3    4 1
     5    3    8 1
     6    3    9 1
     7    3   16 1
     8    4    5 1
     9    4   17 1
    10    4   18 1
    11    5   10 ar
    12    5   11 ar
    13    6    7 1
    14    6   12 ar
    15    6   13 ar
    16    7   14 1
    17    7   15 1
    18    7   19 1
    19    8   20 1
    20    8   21 1
    21    8   22 1
    22    9   23 1
    23    9   24 1
    24    9   25 1
    25   10   12 ar
    26   10   26 1
    27   11   13 ar
    28   11   27 1
    29   12   28 1
    30   13   29 1
    31   14   30 1
    32   14   31 1
    33   14   32 1
