@<TRIPOS>MOLECULE
DB01139
   45    47     0     0     0
SMALL
USER_CHARGES

@<TRIPOS>ATOM
      1 S1         -0.1626   -1.9384    1.2488 S.3       1 <0>        -0.1310
      2 S2          5.5699    0.1987    0.5790 S.3       1 <0>        -0.1158
      3 O1          1.5985    0.0204   -2.5821 O.2       1 <0>        -0.2731
      4 O2         -4.3921   -0.1268    0.3052 O.3       1 <0>        -0.4603
      5 O3         -1.4151    0.9156   -3.0187 O.3       1 <0>        -0.4763
      6 O4         -1.1788    2.4358   -1.3264 O.2       1 <0>        -0.2437
      7 O5          4.2317   -1.4482   -1.6977 O.2       1 <0>        -0.2749
      8 O6         -5.7596    1.6728    0.7838 O.2       1 <0>        -0.2512
      9 N1         -0.0876   -0.7297   -1.1140 N.am      1 <0>        -0.2489
     10 N2          2.5766   -1.8953   -0.1324 N.am      1 <0>        -0.3011
     11 N3          1.8503    2.8514    0.9813 N.ar      1 <0>        -0.2632
     12 C1          0.0285   -2.0598   -0.5443 C.3       1 <0>         0.1042
     13 C2          1.4763   -2.0591   -1.0820 C.3       1 <0>         0.1283
     14 C3          1.0749   -0.7401   -1.8018 C.2       1 <0>         0.2440
     15 C4         -1.1376    0.1004   -0.8852 C.2       1 <0>         0.1252
     16 C5         -2.0148   -0.1296    0.1207 C.2       1 <0>         0.0056
     17 C6         -1.8529   -1.2602    1.1345 C.3       1 <0>         0.0220
     18 C7         -3.2491    0.6980    0.3876 C.3       1 <0>         0.1166
     19 C8         -1.2418    1.2945   -1.7371 C.2       1 <0>         0.3515
     20 C9          3.8789   -1.5995   -0.5291 C.2       1 <0>         0.2239
     21 C10         4.8448   -1.4573    0.6228 C.3       1 <0>         0.0748
     22 C11        -5.5987    0.4876    0.5259 C.2       1 <0>         0.3043
     23 C12         4.1170    1.2341    0.7358 C.ar      1 <0>         0.0112
     24 C13        -6.7156   -0.5044    0.4061 C.3       1 <0>         0.0332
     25 C14         3.3040    1.1306    1.8591 C.ar      1 <0>        -0.0302
     26 C15         3.7982    2.1453   -0.2648 C.ar      1 <0>        -0.0302
     27 C16         2.1925    1.9544    1.9332 C.ar      1 <0>         0.0286
     28 C17         2.6644    2.9238   -0.0957 C.ar      1 <0>         0.0286
     29 H1         -0.6262   -2.7915   -1.0323 H         1 <0>         0.0644
     30 H2          1.6740   -2.8812   -1.7801 H         1 <0>         0.0622
     31 H3         -2.5421   -2.0754    0.8892 H         1 <0>         0.0424
     32 H4         -2.1044   -0.8990    2.1374 H         1 <0>         0.0424
     33 H5          2.3925   -1.9980    0.8625 H         1 <0>         0.1496
     34 H6         -3.3594    1.5176   -0.3288 H         1 <0>         0.0746
     35 H7         -3.1779    1.1380    1.3903 H         1 <0>         0.0746
     36 H8          5.6367   -2.2025    0.4982 H         1 <0>         0.0474
     37 H9          4.3667   -1.6401    1.5890 H         1 <0>         0.0474
     38 H10        -1.4896    1.6841   -3.6239 H         1 <0>         0.2954
     39 H11        -6.7301   -0.9250   -0.6025 H         1 <0>         0.0342
     40 H12        -7.6694   -0.0013    0.5884 H         1 <0>         0.0342
     41 H13        -6.5902   -1.2942    1.1511 H         1 <0>         0.0342
     42 H14         3.5173    0.4378    2.6663 H         1 <0>         0.0644
     43 H15         4.4054    2.2551   -1.1572 H         1 <0>         0.0644
     44 H16         1.5259    1.9123    2.7883 H         1 <0>         0.0830
     45 H17         2.3706    3.6481   -0.8482 H         1 <0>         0.0830
@<TRIPOS>BOND
     1    1   12 1
     2    1   17 1
     3    2   21 1
     4    2   23 1
     5    3   14 2
     6    4   18 1
     7    4   22 1
     8    5   19 1
     9    5   38 1
    10    6   19 2
    11    7   20 2
    12    8   22 2
    13    9   12 1
    14    9   14 am
    15    9   15 1
    16   10   13 1
    17   10   20 am
    18   10   33 1
    19   11   27 ar
    20   11   28 ar
    21   12   13 1
    22   12   29 1
    23   13   14 1
    24   13   30 1
    25   15   16 2
    26   15   19 1
    27   16   17 1
    28   16   18 1
    29   17   31 1
    30   17   32 1
    31   18   34 1
    32   18   35 1
    33   20   21 1
    34   21   36 1
    35   21   37 1
    36   22   24 1
    37   23   25 ar
    38   23   26 ar
    39   24   39 1
    40   24   40 1
    41   24   41 1
    42   25   27 ar
    43   25   42 1
    44   26   28 ar
    45   26   43 1
    46   27   44 1
    47   28   45 1
