@<TRIPOS>MOLECULE
DB01157
   50    52     0     0     0
SMALL
USER_CHARGES

@<TRIPOS>ATOM
      1 O1         -4.3148   -2.1852   -0.4565 O.3       1 <0>        -0.4913
      2 O2         -4.3935    2.5715    0.0975 O.3       1 <0>        -0.4913
      3 O3         -5.7369    0.1523   -0.0257 O.3       1 <0>        -0.4885
      4 N1         -0.2097    0.3153   -0.6403 N.pl3     1 <0>        -0.3395
      5 N2          6.0766    0.5409   -1.2863 N.ar      1 <0>        -0.2146
      6 N3          6.3845    0.2462    1.0855 N.ar      1 <0>        -0.1995
      7 N4          4.6347   -0.3954    2.4719 N.pl3     1 <0>        -0.3425
      8 N5          8.1693    0.8948   -0.2865 N.pl3     1 <0>        -0.3274
      9 C1          2.0529   -0.4926   -0.9420 C.ar      1 <0>        -0.0267
     10 C2          2.8618   -0.4719    0.1896 C.ar      1 <0>        -0.0333
     11 C3          0.6058   -0.8568   -0.8680 C.3       1 <0>         0.0346
     12 C4          4.2191   -0.1238    0.0773 C.ar      1 <0>         0.0432
     13 C5          4.7797    0.2067   -1.1673 C.ar      1 <0>         0.0781
     14 C6          2.5964   -0.1672   -2.1798 C.ar      1 <0>        -0.0548
     15 C7          3.9471    0.1778   -2.2835 C.ar      1 <0>        -0.0352
     16 C8          2.1991   -0.8351    1.4847 C.3       1 <0>        -0.0387
     17 C9         -1.5851    0.2747   -0.4876 C.ar      1 <0>         0.0346
     18 C10         5.0820   -0.0838    1.1688 C.ar      1 <0>         0.1293
     19 C11        -2.3236    1.4532   -0.2680 C.ar      1 <0>         0.0048
     20 C12        -2.2838   -0.9462   -0.5472 C.ar      1 <0>         0.0048
     21 C13        -3.6695   -0.9871   -0.3932 C.ar      1 <0>         0.1669
     22 C14        -3.7093    1.4124   -0.1134 C.ar      1 <0>         0.1669
     23 C15        -4.3823    0.1923   -0.1760 C.ar      1 <0>         0.2036
     24 C16         6.8085    0.5426   -0.1537 C.ar      1 <0>         0.2148
     25 C17        -4.4778   -2.8990    0.7674 C.3       1 <0>         0.0790
     26 C18        -4.5753    2.9793    1.4520 C.3       1 <0>         0.0790
     27 C19        -6.5230    0.2768   -1.2084 C.3       1 <0>         0.0791
     28 H1          0.3210   -1.2884   -1.8388 H         1 <0>         0.0511
     29 H2          0.4131   -1.6722   -0.1633 H         1 <0>         0.0511
     30 H3          1.9848   -0.1729   -3.0784 H         1 <0>         0.0622
     31 H4          0.2394    1.2236   -0.5899 H         1 <0>         0.1464
     32 H5          4.3480    0.4290   -3.2637 H         1 <0>         0.0639
     33 H6          2.3124   -0.0351    2.2203 H         1 <0>         0.0278
     34 H7          1.1132   -0.9284    1.4614 H         1 <0>         0.0278
     35 H8          2.5604   -1.7994    1.8536 H         1 <0>         0.0278
     36 H9         -1.8079    2.4105   -0.2184 H         1 <0>         0.0674
     37 H10        -1.7654   -1.8859   -0.7201 H         1 <0>         0.0674
     38 H11         4.3612   -1.3548    2.6448 H         1 <0>         0.1437
     39 H12         4.0856    0.3148    2.9411 H         1 <0>         0.1437
     40 H13         8.7610    0.9104    0.5327 H         1 <0>         0.1452
     41 H14         8.5361    1.1257   -1.1995 H         1 <0>         0.1452
     42 H15        -3.5030   -3.1503    1.1973 H         1 <0>         0.0660
     43 H16        -5.0157   -3.8267    0.5540 H         1 <0>         0.0660
     44 H17        -5.0634   -2.3113    1.4815 H         1 <0>         0.0660
     45 H18        -5.1387    2.2245    2.0096 H         1 <0>         0.0660
     46 H19        -5.1441    3.9131    1.4552 H         1 <0>         0.0660
     47 H20        -3.6076    3.1570    1.9319 H         1 <0>         0.0660
     48 H21        -6.3374    1.2395   -1.6951 H         1 <0>         0.0660
     49 H22        -7.5779    0.2264   -0.9252 H         1 <0>         0.0660
     50 H23        -6.3080   -0.5421   -1.9022 H         1 <0>         0.0660
@<TRIPOS>BOND
     1    1   21 1
     2    1   25 1
     3    2   22 1
     4    2   26 1
     5    3   23 1
     6    3   27 1
     7    4   11 1
     8    4   17 1
     9    4   31 1
    10    5   13 ar
    11    5   24 ar
    12    6   18 ar
    13    6   24 ar
    14    7   18 1
    15    7   38 1
    16    7   39 1
    17    8   24 1
    18    8   40 1
    19    8   41 1
    20    9   10 ar
    21    9   11 1
    22    9   14 ar
    23   10   12 ar
    24   10   16 1
    25   11   28 1
    26   11   29 1
    27   12   13 ar
    28   12   18 ar
    29   13   15 ar
    30   14   15 ar
    31   14   30 1
    32   15   32 1
    33   16   33 1
    34   16   34 1
    35   16   35 1
    36   17   19 ar
    37   17   20 ar
    38   19   22 ar
    39   19   36 1
    40   20   21 ar
    41   20   37 1
    42   21   23 ar
    43   22   23 ar
    44   25   42 1
    45   25   43 1
    46   25   44 1
    47   26   45 1
    48   26   46 1
    49   26   47 1
    50   27   48 1
    51   27   49 1
    52   27   50 1
