@<TRIPOS>MOLECULE
DB01357
   49    52     0     0     0
SMALL
USER_CHARGES

@<TRIPOS>ATOM
      1 O1          4.7787    1.2875    0.9407 O.3       1 <0>        -0.3760
      2 O2         -6.0400   -0.4449    0.1321 O.3       1 <0>        -0.4951
      3 C1          2.4357    0.6454    0.4541 C.3       1 <0>         0.0111
      4 C2          1.8818   -0.6141   -0.2501 C.3       1 <0>        -0.0286
      5 C3          0.3998   -0.8503    0.0503 C.3       1 <0>        -0.0305
      6 C4          3.9413    0.5477    0.0626 C.3       1 <0>         0.1317
      7 C5         -0.4201    0.3721   -0.4615 C.3       1 <0>        -0.0125
      8 C6          1.6533    1.8655   -0.0637 C.3       1 <0>        -0.0433
      9 C7          2.8882   -1.7008    0.1196 C.3       1 <0>        -0.0458
     10 C8          0.1317    1.7005    0.1201 C.3       1 <0>        -0.0453
     11 C9          4.2417   -0.9661    0.2145 C.3       1 <0>        -0.0118
     12 C10        -0.1366   -2.1208   -0.6131 C.3       1 <0>        -0.0454
     13 C11         2.3018    0.6045    2.0055 C.3       1 <0>        -0.0558
     14 C12        -1.9185    0.1547   -0.2667 C.ar      1 <0>        -0.0406
     15 C13        -1.5690   -2.3785   -0.1559 C.3       1 <0>        -0.0270
     16 C14        -2.4468   -1.1510   -0.1659 C.ar      1 <0>        -0.0405
     17 C15         4.2268    0.9774   -1.3206 C.1       1 <0>        -0.0704
     18 C16        -2.8176    1.2361   -0.2718 C.ar      1 <0>        -0.0546
     19 C17        -3.8329   -1.3369   -0.0199 C.ar      1 <0>        -0.0165
     20 C18        -4.1933    1.0367   -0.1361 C.ar      1 <0>        -0.0197
     21 C19        -4.7009   -0.2491   -0.0046 C.ar      1 <0>         0.1204
     22 C20         4.4591    1.3264   -2.4455 C.1       1 <0>        -0.1163
     23 C21        -6.8702    0.7159    0.1327 C.3       1 <0>         0.0788
     24 H1          1.9601   -0.4789   -1.3407 H         1 <0>         0.0310
     25 H2          0.2582   -0.9617    1.1329 H         1 <0>         0.0310
     26 H3         -0.2816    0.4316   -1.5523 H         1 <0>         0.0352
     27 H4          1.8346    2.0195   -1.1337 H         1 <0>         0.0272
     28 H5          1.9881    2.7801    0.4405 H         1 <0>         0.0272
     29 H6          2.9226   -2.4945   -0.6337 H         1 <0>         0.0269
     30 H7          2.6415   -2.1678    1.0798 H         1 <0>         0.0269
     31 H8         -0.1320    1.7815    1.1812 H         1 <0>         0.0271
     32 H9         -0.3426    2.5561   -0.3748 H         1 <0>         0.0271
     33 H10         4.7125   -1.1879    1.1801 H         1 <0>         0.0303
     34 H11         4.9301   -1.3335   -0.5563 H         1 <0>         0.0303
     35 H12         0.4770   -2.9922   -0.3588 H         1 <0>         0.0271
     36 H13        -0.1057   -2.0168   -1.7055 H         1 <0>         0.0271
     37 H14         1.2662    0.5174    2.3431 H         1 <0>         0.0236
     38 H15         2.8495   -0.2311    2.4523 H         1 <0>         0.0236
     39 H16         2.6997    1.5248    2.4491 H         1 <0>         0.0236
     40 H17        -1.5516   -2.7706    0.8692 H         1 <0>         0.0313
     41 H18        -2.0068   -3.1535   -0.7967 H         1 <0>         0.0313
     42 H19         5.7025    1.0476    0.7527 H         1 <0>         0.2114
     43 H20        -2.4670    2.2570   -0.3898 H         1 <0>         0.0622
     44 H21        -4.2361   -2.3427    0.0802 H         1 <0>         0.0657
     45 H22        -4.8077    1.9307   -0.1453 H         1 <0>         0.0654
     46 H23         4.6641    1.6358   -3.4436 H         1 <0>         0.1229
     47 H24        -6.8178    1.2481   -0.8231 H         1 <0>         0.0660
     48 H25        -6.6482    1.3688    0.9837 H         1 <0>         0.0660
     49 H26        -7.9035    0.3743    0.2526 H         1 <0>         0.0660
@<TRIPOS>BOND
     1    1    6 1
     2    1   42 1
     3    2   21 1
     4    2   23 1
     5    3    4 1
     6    3    6 1
     7    3    8 1
     8    3   13 1
     9    4    5 1
    10    4    9 1
    11    4   24 1
    12    5    7 1
    13    5   12 1
    14    5   25 1
    15    6   11 1
    16    6   17 1
    17    7   10 1
    18    7   14 1
    19    7   26 1
    20    8   10 1
    21    8   27 1
    22    8   28 1
    23    9   11 1
    24    9   29 1
    25    9   30 1
    26   10   31 1
    27   10   32 1
    28   11   33 1
    29   11   34 1
    30   12   15 1
    31   12   35 1
    32   12   36 1
    33   13   37 1
    34   13   38 1
    35   13   39 1
    36   14   16 ar
    37   14   18 ar
    38   15   16 1
    39   15   40 1
    40   15   41 1
    41   16   19 ar
    42   17   22 3
    43   18   20 ar
    44   18   43 1
    45   19   21 ar
    46   19   44 1
    47   20   21 ar
    48   20   45 1
    49   22   46 1
    50   23   47 1
    51   23   48 1
    52   23   49 1
