@<TRIPOS>MOLECULE
DB01147
   47    50     0     0     0
SMALL
USER_CHARGES

@<TRIPOS>ATOM
      1 Cl1        -2.8117   -2.0388   -2.5410 Cl        1 <0>        -0.0829
      2 S1          0.9043    1.1082    1.1718 S.3       1 <0>        -0.1273
      3 O1          0.9750    0.2258   -3.1443 O.2       1 <0>        -0.2734
      4 O2          5.0346   -0.2753   -0.7073 O.3       1 <0>        -0.4793
      5 O3          4.3967    1.4994   -1.9876 O.2       1 <0>        -0.2489
      6 O4         -2.3029    2.5133    0.3001 O.2       1 <0>        -0.2700
      7 O5         -5.3340   -0.3851    0.7432 O.3       1 <0>        -0.3586
      8 N1          1.8608    1.2891   -1.2324 N.am      1 <0>        -0.2708
      9 N2         -1.2809    0.8859   -0.9733 N.am      1 <0>        -0.2976
     10 N3         -4.4881   -1.4822    0.6339 N.2       1 <0>        -0.0772
     11 C1          0.9328    2.0541   -0.3945 C.3       1 <0>         0.1005
     12 C2          2.6712    0.5728    0.9254 C.3       1 <0>         0.0417
     13 C3          2.7795    0.3640   -0.6004 C.3       1 <0>         0.1379
     14 C4         -0.1612    1.7267   -1.4198 C.3       1 <0>         0.1279
     15 C5          0.9366    0.9561   -2.1801 C.2       1 <0>         0.2402
     16 C6          3.5810    1.6758    1.4835 C.3       1 <0>        -0.0484
     17 C7          2.9055   -0.7340    1.6853 C.3       1 <0>        -0.0484
     18 C8          4.1323    0.6159   -1.1859 C.2       1 <0>         0.3269
     19 C9         -2.2904    1.3587   -0.1257 C.2       1 <0>         0.2502
     20 C10        -3.3586    0.4069    0.2075 C.2       1 <0>         0.1060
     21 C11        -3.2979   -0.9700    0.3081 C.2       1 <0>         0.1271
     22 C12        -4.6338    0.7483    0.4820 C.2       1 <0>         0.1469
     23 C13        -2.1643   -1.8352    0.1115 C.ar      1 <0>         0.0227
     24 C14        -5.3861    2.0082    0.5557 C.3       1 <0>        -0.0029
     25 C15        -1.8559   -2.3728   -1.1383 C.ar      1 <0>         0.0503
     26 C16        -1.3632   -2.1309    1.2145 C.ar      1 <0>        -0.0510
     27 C17        -0.7468   -3.2060   -1.2848 C.ar      1 <0>        -0.0427
     28 C18        -0.2540   -2.9639    1.0680 C.ar      1 <0>        -0.0610
     29 C19         0.0541   -3.5014   -0.1817 C.ar      1 <0>        -0.0603
     30 H1          1.2091    3.1090   -0.3087 H         1 <0>         0.0640
     31 H2          2.4709   -0.6485   -0.8940 H         1 <0>         0.0631
     32 H3         -0.5172    2.5971   -1.9841 H         1 <0>         0.0622
     33 H4          3.4683    2.6207    0.9401 H         1 <0>         0.0244
     34 H5          3.3700    1.8709    2.5418 H         1 <0>         0.0244
     35 H6          4.6365    1.3888    1.4222 H         1 <0>         0.0244
     36 H7          2.7037   -0.6195    2.7567 H         1 <0>         0.0244
     37 H8          2.2737   -1.5433    1.3084 H         1 <0>         0.0244
     38 H9          3.9451   -1.0651    1.5877 H         1 <0>         0.0244
     39 H10        -1.3798   -0.0320   -1.3872 H         1 <0>         0.1499
     40 H11         5.9298   -0.1262   -1.0793 H         1 <0>         0.2951
     41 H12        -6.4642    1.8280    0.6152 H         1 <0>         0.0309
     42 H13        -5.0898    2.5797    1.4407 H         1 <0>         0.0309
     43 H14        -5.1997    2.6239   -0.3299 H         1 <0>         0.0309
     44 H15        -1.5867   -1.7206    2.1967 H         1 <0>         0.0625
     45 H16        -0.4913   -3.6321   -2.2516 H         1 <0>         0.0632
     46 H17         0.3683   -3.1953    1.9275 H         1 <0>         0.0618
     47 H18         0.9185   -4.1490   -0.2956 H         1 <0>         0.0618
@<TRIPOS>BOND
     1    1   25 1
     2    2   11 1
     3    2   12 1
     4    3   15 2
     5    4   18 1
     6    4   40 1
     7    5   18 2
     8    6   19 2
     9    7   10 1
    10    7   22 1
    11    8   11 1
    12    8   13 1
    13    8   15 am
    14    9   14 1
    15    9   19 am
    16    9   39 1
    17   10   21 2
    18   11   14 1
    19   11   30 1
    20   12   13 1
    21   12   16 1
    22   12   17 1
    23   13   18 1
    24   13   31 1
    25   14   15 1
    26   14   32 1
    27   16   33 1
    28   16   34 1
    29   16   35 1
    30   17   36 1
    31   17   37 1
    32   17   38 1
    33   19   20 1
    34   20   21 1
    35   20   22 2
    36   21   23 1
    37   22   24 1
    38   23   25 ar
    39   23   26 ar
    40   24   41 1
    41   24   42 1
    42   24   43 1
    43   25   27 ar
    44   26   28 ar
    45   26   44 1
    46   27   29 ar
    47   27   45 1
    48   28   29 ar
    49   28   46 1
    50   29   47 1
