@<TRIPOS>MOLECULE
DB01544
   35    37     0     0     0
SMALL
USER_CHARGES

@<TRIPOS>ATOM
      1 F1          2.8532   -2.0634    1.6357 F         1 <0>        -0.2048
      2 O1         -2.2149   -3.6210   -0.0387 O.2       1 <0>        -0.2732
      3 O2         -1.2901    4.8852    0.7584 O.3       1 <0>        -0.5760
      4 O3          0.6449    4.0889    1.4221 O.2       1 <0>         0.0414
      5 N1         -2.2640   -1.3170   -0.3835 N.am      1 <0>        -0.2723
      6 N2          0.3288   -2.0116    1.0369 N.2       1 <0>        -0.2733
      7 N3         -0.5031    3.9253    0.9420 N.pl3     1 <0>         0.0796
      8 C1         -0.4697    0.2328    0.4236 C.ar      1 <0>         0.0284
      9 C2         -1.7702   -0.0039   -0.0685 C.ar      1 <0>         0.0456
     10 C3          0.5570   -0.8461    0.5328 C.2       1 <0>         0.0780
     11 C4         -0.0655    1.5339    0.7743 C.ar      1 <0>         0.0265
     12 C5         -1.0109   -2.2897    1.5099 C.3       1 <0>         0.1169
     13 C6         -2.6049    1.1138   -0.2670 C.ar      1 <0>        -0.0332
     14 C7         -1.8690   -2.4818    0.2849 C.2       1 <0>         0.2410
     15 C8          1.9329   -0.5871    0.0183 C.ar      1 <0>         0.0357
     16 C9         -0.9242    2.6142    0.5967 C.ar      1 <0>         0.2739
     17 C10        -2.1888    2.4058    0.0645 C.ar      1 <0>         0.0174
     18 C11        -3.2879   -1.4359   -1.4215 C.3       1 <0>         0.0084
     19 C12         3.0209   -1.2199    0.6070 C.ar      1 <0>         0.1325
     20 C13         2.1104    0.2865   -1.0479 C.ar      1 <0>        -0.0498
     21 C14         4.3059   -0.9755    0.1224 C.ar      1 <0>        -0.0258
     22 C15         3.3955    0.5310   -1.5323 C.ar      1 <0>        -0.0610
     23 C16         4.4931   -0.1000   -0.9473 C.ar      1 <0>        -0.0590
     24 H1          0.9278    1.6860    1.1919 H         1 <0>         0.0692
     25 H2         -1.4143   -1.5243    2.1817 H         1 <0>         0.0605
     26 H3         -1.0017   -3.2257    2.0794 H         1 <0>         0.0605
     27 H4         -3.6162    1.0028   -0.6505 H         1 <0>         0.0638
     28 H5         -2.8882    3.2220   -0.0983 H         1 <0>         0.0686
     29 H6         -3.0521   -0.7789   -2.2646 H         1 <0>         0.0433
     30 H7         -4.2623   -1.1818   -0.9929 H         1 <0>         0.0433
     31 H8         -3.3443   -2.4608   -1.8003 H         1 <0>         0.0433
     32 H9          1.2774    0.7683   -1.5510 H         1 <0>         0.0625
     33 H10         5.1603   -1.4672    0.5778 H         1 <0>         0.0646
     34 H11         3.5408    1.2063   -2.3704 H         1 <0>         0.0618
     35 H12         5.4936    0.0888   -1.3258 H         1 <0>         0.0618
@<TRIPOS>BOND
     1    1   19 1
     2    2   14 2
     3    3    7 1
     4    4    7 2
     5    5    9 1
     6    5   14 am
     7    5   18 1
     8    6   10 2
     9    6   12 1
    10    7   16 1
    11    8    9 ar
    12    8   10 1
    13    8   11 ar
    14    9   13 ar
    15   10   15 1
    16   11   16 ar
    17   11   24 1
    18   12   14 1
    19   12   25 1
    20   12   26 1
    21   13   17 ar
    22   13   27 1
    23   15   19 ar
    24   15   20 ar
    25   16   17 ar
    26   17   28 1
    27   18   29 1
    28   18   30 1
    29   18   31 1
    30   19   21 ar
    31   20   22 ar
    32   20   32 1
    33   21   23 ar
    34   21   33 1
    35   22   23 ar
    36   22   34 1
    37   23   35 1
