@<TRIPOS>MOLECULE
DB01140
   42    44     0     0     0
SMALL
USER_CHARGES

@<TRIPOS>ATOM
      1 S1         -0.8291   -0.9393   -0.9027 S.3       1 <0>        -0.1311
      2 O1         -2.4452    3.1644    0.5674 O.2       1 <0>        -0.2731
      3 O2          1.9092    2.1804   -1.8836 O.2       1 <0>        -0.2737
      4 O3         -4.2805    0.7618    2.1330 O.3       1 <0>        -0.4763
      5 O4         -5.6583    1.2765    0.3816 O.2       1 <0>        -0.2437
      6 O5          4.3520   -3.7199    0.4840 O.3       1 <0>        -0.5068
      7 N1         -2.5568    1.0077   -0.3796 N.am      1 <0>        -0.2490
      8 N2          0.4087    1.7692   -0.1646 N.am      1 <0>        -0.3002
      9 N3          3.9056    2.5909   -0.0189 N.3       1 <0>        -0.3163
     10 C1         -1.5734    0.6368   -1.3807 C.3       1 <0>         0.1042
     11 C2         -0.8086    1.9119   -0.9629 C.3       1 <0>         0.1284
     12 C3         -2.0717    2.2407   -0.1169 C.2       1 <0>         0.2440
     13 C4         -3.5715    0.1977    0.0180 C.2       1 <0>         0.1217
     14 C5         -2.4171   -1.8361   -0.9682 C.3       1 <0>         0.0186
     15 C6         -3.5755   -1.1252   -0.2720 C.2       1 <0>        -0.0344
     16 C7          1.6883    1.9182   -0.7024 C.2       1 <0>         0.2350
     17 C8         -4.7024   -2.0726    0.0629 C.3       1 <0>        -0.0407
     18 C9         -4.6323    0.8085    0.8328 C.2       1 <0>         0.3513
     19 C10         2.7937    1.7001    0.3250 C.3       1 <0>         0.1079
     20 C11         3.2119    0.2450    0.3675 C.ar      1 <0>        -0.0216
     21 C12         3.0932   -0.4559    1.5541 C.ar      1 <0>        -0.0532
     22 C13         3.7027   -0.3490   -0.7814 C.ar      1 <0>        -0.0532
     23 C14         3.4787   -1.7958    1.5933 C.ar      1 <0>        -0.0199
     24 C15         4.0880   -1.6891   -0.7422 C.ar      1 <0>        -0.0199
     25 C16         3.9759   -2.4125    0.4452 C.ar      1 <0>         0.1169
     26 H1         -1.9694    0.6717   -2.4026 H         1 <0>         0.0644
     27 H2         -0.6784    2.6270   -1.7846 H         1 <0>         0.0622
     28 H3          0.3341    1.5322    0.8219 H         1 <0>         0.1496
     29 H4         -2.2396   -2.8067   -0.4929 H         1 <0>         0.0423
     30 H5         -2.6798   -2.0199   -2.0158 H         1 <0>         0.0423
     31 H6         -5.5652   -1.5724    0.5111 H         1 <0>         0.0275
     32 H7         -4.3582   -2.8348    0.7698 H         1 <0>         0.0275
     33 H8         -5.0537   -2.5738   -0.8453 H         1 <0>         0.0275
     34 H9          2.4207    2.0131    1.3085 H         1 <0>         0.0605
     35 H10         4.6349    2.5119    0.6896 H         1 <0>         0.1192
     36 H11         3.5886    3.5595    0.0145 H         1 <0>         0.1192
     37 H12        -4.9628    1.1599    2.7146 H         1 <0>         0.2954
     38 H13         2.7068    0.0131    2.4541 H         1 <0>         0.0622
     39 H14         3.8021    0.1990   -1.7134 H         1 <0>         0.0622
     40 H15         3.3888   -2.3543    2.5211 H         1 <0>         0.0654
     41 H16         4.4750   -2.1575   -1.6432 H         1 <0>         0.0654
     42 H17         4.6710   -3.9823   -0.3965 H         1 <0>         0.2921
@<TRIPOS>BOND
     1    1   10 1
     2    1   14 1
     3    2   12 2
     4    3   16 2
     5    4   18 1
     6    4   37 1
     7    5   18 2
     8    6   25 1
     9    6   42 1
    10    7   10 1
    11    7   12 am
    12    7   13 1
    13    8   11 1
    14    8   16 am
    15    8   28 1
    16    9   19 1
    17    9   35 1
    18    9   36 1
    19   10   11 1
    20   10   26 1
    21   11   12 1
    22   11   27 1
    23   13   15 2
    24   13   18 1
    25   14   15 1
    26   14   29 1
    27   14   30 1
    28   15   17 1
    29   16   19 1
    30   17   31 1
    31   17   32 1
    32   17   33 1
    33   19   20 1
    34   19   34 1
    35   20   21 ar
    36   20   22 ar
    37   21   23 ar
    38   21   38 1
    39   22   24 ar
    40   22   39 1
    41   23   25 ar
    42   23   40 1
    43   24   25 ar
    44   24   41 1
