@<TRIPOS>MOLECULE
DB01021
   28    29     0     0     0
SMALL
USER_CHARGES

@<TRIPOS>ATOM
      1 Cl1        -4.7162   -1.7776    0.9676 Cl        1 <0>        -0.1012
      2 Cl2        -4.2641   -0.7245   -1.7099 Cl        1 <0>        -0.1012
      3 Cl3         2.7272   -2.9493   -0.4252 Cl        1 <0>        -0.0815
      4 S1         -1.0145    2.0472    0.0669 S.o2      1 <0>         0.0619
      5 S2          3.9454    0.0406   -0.5895 S.o2      1 <0>         0.0574
      6 O1         -0.6470    2.9467   -1.0085 O.2       1 <0>        -0.1529
      7 O2         -0.9855    2.4652    1.4543 O.2       1 <0>        -0.1529
      8 O3          4.4770   -1.1361   -1.2709 O.2       1 <0>        -0.1532
      9 O4          4.0170    1.3539   -1.2208 O.2       1 <0>        -0.1532
     10 N1         -2.5390    1.3663   -0.2972 N.pl3     1 <0>        -0.1673
     11 N2         -1.8922   -0.9244    0.1962 N.pl3     1 <0>        -0.3238
     12 N3          4.7104    0.1407    0.9473 N.pl3     1 <0>        -0.2035
     13 C1         -2.8605    0.1271    0.4463 C.3       1 <0>         0.1215
     14 C2          0.0174    0.6192   -0.0428 C.ar      1 <0>         0.1280
     15 C3         -0.5376   -0.6671    0.0410 C.ar      1 <0>         0.0565
     16 C4          1.3859    0.8298   -0.2363 C.ar      1 <0>        -0.0057
     17 C5          2.2366   -0.2647   -0.3520 C.ar      1 <0>         0.1252
     18 C6         -4.2464   -0.3459    0.0261 C.3       1 <0>         0.1405
     19 C7          0.3465   -1.7504   -0.0924 C.ar      1 <0>        -0.0186
     20 C8          1.7180   -1.5545   -0.2817 C.ar      1 <0>         0.0691
     21 H1         -2.8683    0.3643    1.5179 H         1 <0>         0.0709
     22 H2         -2.8219    1.3672   -1.2858 H         1 <0>         0.1502
     23 H3         -2.1795   -1.8864    0.3394 H         1 <0>         0.1477
     24 H4          1.7698    1.8452   -0.2783 H         1 <0>         0.0658
     25 H5         -4.9984    0.4299    0.2008 H         1 <0>         0.0667
     26 H6         -0.0484   -2.7649   -0.0460 H         1 <0>         0.0652
     27 H7          5.0804    1.0676    1.1980 H         1 <0>         0.1442
     28 H8          4.1879   -0.2651    1.7356 H         1 <0>         0.1442
@<TRIPOS>BOND
     1    1   18 1
     2    2   18 1
     3    3   20 1
     4    4    6 2
     5    4    7 2
     6    4   10 1
     7    4   14 1
     8    5    8 2
     9    5    9 2
    10    5   12 1
    11    5   17 1
    12   10   13 1
    13   10   22 1
    14   11   13 1
    15   11   15 1
    16   11   23 1
    17   12   27 1
    18   12   28 1
    19   13   18 1
    20   13   21 1
    21   14   15 ar
    22   14   16 ar
    23   15   19 ar
    24   16   17 ar
    25   16   24 1
    26   17   20 ar
    27   18   25 1
    28   19   20 ar
    29   19   26 1
