@<TRIPOS>MOLECULE
DB01156
   34    34     0     0     0
SMALL
USER_CHARGES

@<TRIPOS>ATOM
      1 Cl1        -3.5885   -3.1946    0.7804 Cl        1 <0>        -0.0835
      2 O1         -0.9983    1.9762   -1.4720 O.2       1 <0>        -0.2904
      3 N1          1.1545    0.0938   -0.8821 N.3       1 <0>        -0.3022
      4 C1          2.3867   -0.3642   -0.2318 C.3       1 <0>         0.0114
      5 C2          0.2204    0.6138    0.1020 C.3       1 <0>         0.0687
      6 C3          2.9826   -1.5055   -1.0628 C.3       1 <0>        -0.0473
      7 C4          3.3702    0.8093   -0.1686 C.3       1 <0>        -0.0473
      8 C5          2.0623   -0.8566    1.1835 C.3       1 <0>        -0.0473
      9 C6          0.8505    1.7933    0.8311 C.3       1 <0>        -0.0424
     10 C7         -1.0292    1.0629   -0.6475 C.2       1 <0>         0.1797
     11 C8         -2.3348    0.3950   -0.3684 C.ar      1 <0>         0.0204
     12 C9         -2.3306   -0.9236    0.0244 C.ar      1 <0>        -0.0328
     13 C10        -3.4918    1.1254   -0.5141 C.ar      1 <0>        -0.0511
     14 C11        -3.5508   -1.5465    0.2862 C.ar      1 <0>         0.0416
     15 C12        -4.7121    0.5028   -0.2524 C.ar      1 <0>        -0.0597
     16 C13        -4.7416   -0.8332    0.1478 C.ar      1 <0>        -0.0433
     17 H1          0.7107   -0.6899   -1.3622 H         1 <0>         0.1231
     18 H2         -0.1064   -0.1029    0.8560 H         1 <0>         0.0540
     19 H3          3.2094   -1.1782   -2.0843 H         1 <0>         0.0247
     20 H4          3.9152   -1.8744   -0.6205 H         1 <0>         0.0247
     21 H5          2.2943   -2.3564   -1.1296 H         1 <0>         0.0247
     22 H6          3.2871    1.4550    0.7057 H         1 <0>         0.0247
     23 H7          3.3200    1.4321   -1.0701 H         1 <0>         0.0247
     24 H8          4.3990    0.4271   -0.1263 H         1 <0>         0.0247
     25 H9          1.3069   -1.6542    1.1684 H         1 <0>         0.0247
     26 H10         2.9636   -1.3531    1.5743 H         1 <0>         0.0247
     27 H11         1.8151   -0.1604    1.9784 H         1 <0>         0.0247
     28 H12         0.0377    2.3801    1.2849 H         1 <0>         0.0249
     29 H13         1.5201    1.6174    1.6674 H         1 <0>         0.0249
     30 H14         1.3206    2.4988    0.1337 H         1 <0>         0.0249
     31 H15        -1.4203   -1.5099    0.0974 H         1 <0>         0.0639
     32 H16        -3.4836    2.1674   -0.8189 H         1 <0>         0.0625
     33 H17        -5.6392    1.0584   -0.3587 H         1 <0>         0.0618
     34 H18        -5.6999   -1.3052    0.3488 H         1 <0>         0.0632
@<TRIPOS>BOND
     1    1   14 1
     2    2   10 2
     3    3    4 1
     4    3    5 1
     5    3   17 1
     6    4    6 1
     7    4    7 1
     8    4    8 1
     9    5    9 1
    10    5   10 1
    11    5   18 1
    12    6   19 1
    13    6   20 1
    14    6   21 1
    15    7   22 1
    16    7   23 1
    17    7   24 1
    18    8   25 1
    19    8   26 1
    20    8   27 1
    21    9   28 1
    22    9   29 1
    23    9   30 1
    24   10   11 1
    25   11   12 ar
    26   11   13 ar
    27   12   14 ar
    28   12   31 1
    29   13   15 ar
    30   13   32 1
    31   14   16 ar
    32   15   16 ar
    33   15   33 1
    34   16   34 1
