@<TRIPOS>MOLECULE
DB01297
   41    41     0     0     0
SMALL
USER_CHARGES

@<TRIPOS>ATOM
      1 O1          0.7873   -1.9513    0.7157 O.3       1 <0>        -0.4894
      2 O2          3.4163   -2.7856    1.0682 O.3       1 <0>        -0.3872
      3 O3         -4.8700    1.1820    1.5500 O.2       1 <0>        -0.2758
      4 N1          2.9643    0.4598   -0.6564 N.3       1 <0>        -0.3112
      5 N2         -4.3566   -0.1567   -0.3217 N.am      1 <0>        -0.2857
      6 C1          3.3268   -0.4857    0.3908 C.3       1 <0>         0.0254
      7 C2          3.0701   -1.9350   -0.0287 C.3       1 <0>         0.1015
      8 C3          3.1650    1.8321   -0.2111 C.3       1 <0>         0.0021
      9 C4          1.6172   -2.2049   -0.4136 C.3       1 <0>         0.1166
     10 C5          2.8237    2.7899   -1.3482 C.3       1 <0>        -0.0499
     11 C6          2.3120    2.1185    1.0214 C.3       1 <0>        -0.0499
     12 C7         -0.4821   -1.5073    0.4590 C.ar      1 <0>         0.1207
     13 C8         -1.1192   -0.6749    1.3731 C.ar      1 <0>        -0.0182
     14 C9         -1.1237   -1.8939   -0.7128 C.ar      1 <0>        -0.0182
     15 C10        -3.0623   -0.6078   -0.0610 C.ar      1 <0>         0.0336
     16 C11        -2.4132   -0.2238    1.1124 C.ar      1 <0>        -0.0370
     17 C12        -2.4176   -1.4429   -0.9736 C.ar      1 <0>        -0.0370
     18 C13        -5.1571    0.6790    0.4686 C.2       1 <0>         0.2141
     19 C14        -6.5003    0.9325   -0.1688 C.3       1 <0>         0.0125
     20 H1          2.7665   -0.3237    1.3172 H         1 <0>         0.0450
     21 H2          4.3869   -0.3753    0.6537 H         1 <0>         0.0450
     22 H3          3.7178   -2.2030   -0.8720 H         1 <0>         0.0640
     23 H4          4.2204    1.9904    0.0451 H         1 <0>         0.0455
     24 H5          3.5202    0.2774   -1.4914 H         1 <0>         0.1223
     25 H6          1.5041   -3.2624   -0.6811 H         1 <0>         0.0723
     26 H7          1.3591   -1.5841   -1.2801 H         1 <0>         0.0723
     27 H8          1.7745    2.6956   -1.6508 H         1 <0>         0.0245
     28 H9          2.9936    3.8287   -1.0449 H         1 <0>         0.0245
     29 H10         3.4484    2.5968   -2.2277 H         1 <0>         0.0245
     30 H11         2.7164    1.6591    1.9287 H         1 <0>         0.0245
     31 H12         1.2764    1.7847    0.8880 H         1 <0>         0.0245
     32 H13         2.2801    3.1966    1.2185 H         1 <0>         0.0245
     33 H14         4.3555   -2.6348    1.2705 H         1 <0>         0.2100
     34 H15        -0.6153   -0.3733    2.2871 H         1 <0>         0.0655
     35 H16        -0.6706   -2.5680   -1.4333 H         1 <0>         0.0655
     36 H17        -2.8466    0.4194    1.8654 H         1 <0>         0.0637
     37 H18        -2.9147   -1.7554   -1.8886 H         1 <0>         0.0637
     38 H19        -4.7613   -0.4809   -1.1976 H         1 <0>         0.1548
     39 H20        -6.3641    1.4407   -1.1275 H         1 <0>         0.0323
     40 H21        -7.1078    1.5639    0.4855 H         1 <0>         0.0323
     41 H22        -7.0205   -0.0162   -0.3283 H         1 <0>         0.0323
@<TRIPOS>BOND
     1    1    9 1
     2    1   12 1
     3    2    7 1
     4    2   33 1
     5    3   18 2
     6    4    6 1
     7    4    8 1
     8    4   24 1
     9    5   15 1
    10    5   18 am
    11    5   38 1
    12    6    7 1
    13    6   20 1
    14    6   21 1
    15    7    9 1
    16    7   22 1
    17    8   10 1
    18    8   11 1
    19    8   23 1
    20    9   25 1
    21    9   26 1
    22   10   27 1
    23   10   28 1
    24   10   29 1
    25   11   30 1
    26   11   31 1
    27   11   32 1
    28   12   13 ar
    29   12   14 ar
    30   13   16 ar
    31   13   34 1
    32   14   17 ar
    33   14   35 1
    34   15   16 ar
    35   15   17 ar
    36   16   36 1
    37   17   37 1
    38   18   19 1
    39   19   39 1
    40   19   40 1
    41   19   41 1
