@<TRIPOS>MOLECULE
DB01108
   51    55     0     0     0
SMALL
USER_CHARGES

@<TRIPOS>ATOM
      1 O1          2.7512    1.4266   -1.4587 O.3       1 <0>        -0.3560
      2 O2         -5.0083   -1.4024   -0.3713 O.3       1 <0>        -0.3912
      3 O3          6.0209    0.4341   -0.1410 O.3       1 <0>        -0.5074
      4 N1          5.8009   -3.0803   -0.2599 N.1       1 <0>        -0.1911
      5 C1          1.7949   -0.2689    0.1293 C.3       1 <0>         0.0077
      6 C2          2.2930    1.1598   -0.1221 C.3       1 <0>         0.1095
      7 C3          0.3215   -0.3596   -0.4095 C.3       1 <0>        -0.0295
      8 C4         -0.5859    0.7777    0.1717 C.3       1 <0>        -0.0341
      9 C5         -1.9846    0.6407   -0.4382 C.3       1 <0>        -0.0301
     10 C6         -2.6404   -0.7180   -0.1220 C.3       1 <0>        -0.0030
     11 C7          3.7625    1.3739   -0.4346 C.3       1 <0>         0.1463
     12 C8          1.4480    2.2790    0.4154 C.3       1 <0>        -0.0200
     13 C9          0.0187    2.1641   -0.1104 C.3       1 <0>        -0.0469
     14 C10        -0.3251   -1.7606   -0.2546 C.3       1 <0>        -0.0488
     15 C11        -1.7805   -1.8213   -0.7528 C.3       1 <0>        -0.0447
     16 C12         2.7139   -1.3027   -0.6058 C.3       1 <0>        -0.0062
     17 C13        -3.0624    1.6533   -0.0612 C.3       1 <0>        -0.0470
     18 C14        -4.0074   -0.4992   -0.7998 C.3       1 <0>         0.0609
     19 C15         1.8738   -0.5675    1.6495 C.3       1 <0>        -0.0562
     20 C16        -4.3806    0.9496   -0.4318 C.3       1 <0>        -0.0261
     21 C17         4.6637    0.2084   -0.3216 C.2       1 <0>         0.1388
     22 C18        -2.8289   -1.0092    1.3885 C.3       1 <0>        -0.0569
     23 C19         4.1989   -1.0558   -0.4154 C.2       1 <0>         0.0697
     24 C20         5.0824   -2.1722   -0.3298 C.1       1 <0>         0.0982
     25 H1          0.3777   -0.1775   -1.4949 H         1 <0>         0.0310
     26 H2         -0.6608    0.6711    1.2590 H         1 <0>         0.0306
     27 H3         -1.8623    0.7215   -1.5316 H         1 <0>         0.0310
     28 H4          4.1996    2.3202   -0.1347 H         1 <0>         0.0707
     29 H5          1.8588    3.2539    0.1254 H         1 <0>         0.0294
     30 H6          1.4505    2.2562    1.5107 H         1 <0>         0.0294
     31 H7         -0.5931    2.9467    0.3526 H         1 <0>         0.0269
     32 H8          0.0143    2.3532   -1.1917 H         1 <0>         0.0269
     33 H9         -0.2919   -2.0811    0.7913 H         1 <0>         0.0268
     34 H10         0.2511   -2.5008   -0.8208 H         1 <0>         0.0268
     35 H11        -1.7781   -1.7170   -1.8457 H         1 <0>         0.0271
     36 H12        -2.2026   -2.8106   -0.5390 H         1 <0>         0.0271
     37 H13         2.5097   -1.2907   -1.6853 H         1 <0>         0.0327
     38 H14         2.4696   -2.3148   -0.2578 H         1 <0>         0.0327
     39 H15        -2.9485    2.5965   -0.6051 H         1 <0>         0.0269
     40 H16        -3.0402    1.8829    1.0099 H         1 <0>         0.0269
     41 H17        -3.9205   -0.5893   -1.8895 H         1 <0>         0.0599
     42 H18         2.8785   -0.3746    2.0425 H         1 <0>         0.0236
     43 H19         1.1914    0.0542    2.2353 H         1 <0>         0.0236
     44 H20         1.6350   -1.6132    1.8685 H         1 <0>         0.0236
     45 H21        -5.0951    1.0055    0.3971 H         1 <0>         0.0290
     46 H22        -4.8537    1.4415   -1.2894 H         1 <0>         0.0290
     47 H23        -1.8842   -1.0120    1.9387 H         1 <0>         0.0236
     48 H24        -3.4769   -0.2763    1.8795 H         1 <0>         0.0236
     49 H25        -3.2828   -1.9957    1.5386 H         1 <0>         0.0236
     50 H26        -5.2472   -1.1956    0.5473 H         1 <0>         0.2098
     51 H27         6.1617    1.3963   -0.1249 H         1 <0>         0.2918
@<TRIPOS>BOND
     1    1    6 1
     2    1   11 1
     3    2   18 1
     4    2   50 1
     5    3   21 1
     6    3   51 1
     7    4   24 3
     8    5    6 1
     9    5    7 1
    10    5   16 1
    11    5   19 1
    12    6   11 1
    13    6   12 1
    14    7    8 1
    15    7   14 1
    16    7   25 1
    17    8    9 1
    18    8   13 1
    19    8   26 1
    20    9   10 1
    21    9   17 1
    22    9   27 1
    23   10   15 1
    24   10   18 1
    25   10   22 1
    26   11   21 1
    27   11   28 1
    28   12   13 1
    29   12   29 1
    30   12   30 1
    31   13   31 1
    32   13   32 1
    33   14   15 1
    34   14   33 1
    35   14   34 1
    36   15   35 1
    37   15   36 1
    38   16   23 1
    39   16   37 1
    40   16   38 1
    41   17   20 1
    42   17   39 1
    43   17   40 1
    44   18   20 1
    45   18   41 1
    46   19   42 1
    47   19   43 1
    48   19   44 1
    49   20   45 1
    50   20   46 1
    51   21   23 2
    52   22   47 1
    53   22   48 1
    54   22   49 1
    55   23   24 1
