@<TRIPOS>MOLECULE
DB01184
   54    58     0     0     0
SMALL
USER_CHARGES

@<TRIPOS>ATOM
      1 Cl1        -8.7991    1.7881    1.0946 Cl        1 <0>        -0.0835
      2 O1         -2.3516    0.9972   -2.5185 O.2       1 <0>        -0.2465
      3 O2          6.0624   -2.0840   -0.8782 O.2       1 <0>        -0.2465
      4 N1          0.2738   -1.8419   -0.0834 N.3       1 <0>        -0.3021
      5 N2         -3.3963    0.2230   -0.5276 N.am      1 <0>        -0.2891
      6 N3         -4.5353    1.6411   -1.8792 N.am      1 <0>        -0.3059
      7 N4          4.3753   -0.4549   -0.4757 N.am      1 <0>        -0.2921
      8 N5          6.5578    0.1494   -0.2796 N.am      1 <0>        -0.3060
      9 C1         -2.3872   -0.6323    0.0460 C.3       1 <0>         0.0417
     10 C2         -2.0650   -1.7973   -0.8894 C.3       1 <0>        -0.0191
     11 C3         -1.1160    0.1545    0.3665 C.3       1 <0>        -0.0191
     12 C4         -0.9243   -2.6540   -0.3374 C.3       1 <0>         0.0008
     13 C5         -0.0073   -0.7669    0.8782 C.3       1 <0>         0.0008
     14 C6          1.3698   -2.6835    0.3962 C.3       1 <0>         0.0005
     15 C7          2.6657   -1.8876    0.5766 C.3       1 <0>        -0.0220
     16 C8         -4.6512    0.4585    0.0491 C.ar      1 <0>         0.0700
     17 C9         -3.2955    0.9543   -1.7419 C.2       1 <0>         0.3278
     18 C10         3.1769   -1.2169   -0.6970 C.3       1 <0>         0.0293
     19 C11        -5.3457    1.3308   -0.7868 C.ar      1 <0>         0.0684
     20 C12        -5.2102   -0.0210    1.2154 C.ar      1 <0>        -0.0346
     21 C13        -6.6219    1.7652   -0.5044 C.ar      1 <0>        -0.0179
     22 C14         4.4280    0.9024   -0.1163 C.ar      1 <0>         0.0696
     23 C15        -6.5060    0.4060    1.5237 C.ar      1 <0>        -0.0413
     24 C16         5.7072   -0.9511   -0.5844 C.2       1 <0>         0.3276
     25 C17         5.7684    1.2647    0.0017 C.ar      1 <0>         0.0670
     26 C18        -7.2040    1.2893    0.6734 C.ar      1 <0>         0.0430
     27 C19         3.4134    1.8099    0.1061 C.ar      1 <0>        -0.0360
     28 C20         6.1615    2.5394    0.3446 C.ar      1 <0>        -0.0362
     29 C21         3.7877    3.1116    0.4557 C.ar      1 <0>        -0.0597
     30 C22         5.1466    3.4724    0.5736 C.ar      1 <0>        -0.0597
     31 H1         -2.7577   -1.0566    0.9857 H         1 <0>         0.0530
     32 H2         -1.7820   -1.4356   -1.8857 H         1 <0>         0.0298
     33 H3         -2.9565   -2.4210   -1.0304 H         1 <0>         0.0298
     34 H4         -1.3329    0.9218    1.1201 H         1 <0>         0.0298
     35 H5         -0.7496    0.6881   -0.5192 H         1 <0>         0.0298
     36 H6         -1.2551   -3.1607    0.5790 H         1 <0>         0.0427
     37 H7         -0.6962   -3.4330   -1.0751 H         1 <0>         0.0427
     38 H8          0.8609   -0.1222    1.0355 H         1 <0>         0.0427
     39 H9         -0.2916   -1.1788    1.8555 H         1 <0>         0.0427
     40 H10         1.1104   -3.1689    1.3460 H         1 <0>         0.0427
     41 H11         1.5624   -3.4836   -0.3299 H         1 <0>         0.0427
     42 H12         2.5873   -1.1622    1.3939 H         1 <0>         0.0295
     43 H13         3.4366   -2.5924    0.9189 H         1 <0>         0.0295
     44 H14         3.4063   -1.9943   -1.4358 H         1 <0>         0.0494
     45 H15         2.4209   -0.5635   -1.1446 H         1 <0>         0.0494
     46 H16        -4.7983    2.2563   -2.6392 H         1 <0>         0.1705
     47 H17        -4.6934   -0.6992    1.8827 H         1 <0>         0.0639
     48 H18        -7.1452    2.4444   -1.1682 H         1 <0>         0.0653
     49 H19        -6.9731    0.0444    2.4375 H         1 <0>         0.0633
     50 H20         7.5702    0.1381   -0.2659 H         1 <0>         0.1704
     51 H21         2.3671    1.5455    0.0166 H         1 <0>         0.0639
     52 H22         7.2055    2.8149    0.4347 H         1 <0>         0.0639
     53 H23         3.0205    3.8596    0.6396 H         1 <0>         0.0618
     54 H24         5.4052    4.4922    0.8468 H         1 <0>         0.0618
@<TRIPOS>BOND
     1    1   26 1
     2    2   17 2
     3    3   24 2
     4    4   12 1
     5    4   13 1
     6    4   14 1
     7    5    9 1
     8    5   16 2
     9    5   17 am
    10    6   17 am
    11    6   19 2
    12    6   46 1
    13    7   18 1
    14    7   22 2
    15    7   24 am
    16    8   24 am
    17    8   25 2
    18    8   50 1
    19    9   10 1
    20    9   11 1
    21    9   31 1
    22   10   12 1
    23   10   32 1
    24   10   33 1
    25   11   13 1
    26   11   34 1
    27   11   35 1
    28   12   36 1
    29   12   37 1
    30   13   38 1
    31   13   39 1
    32   14   15 1
    33   14   40 1
    34   14   41 1
    35   15   18 1
    36   15   42 1
    37   15   43 1
    38   16   19 ar
    39   16   20 ar
    40   18   44 1
    41   18   45 1
    42   19   21 ar
    43   20   23 ar
    44   20   47 1
    45   21   26 ar
    46   21   48 1
    47   22   25 ar
    48   22   27 ar
    49   23   26 ar
    50   23   49 1
    51   25   28 ar
    52   27   29 ar
    53   27   51 1
    54   28   30 ar
    55   28   52 1
    56   29   30 ar
    57   29   53 1
    58   30   54 1
