@<TRIPOS>MOLECULE
DB01119
   21    22     0     0     0
SMALL
USER_CHARGES

@<TRIPOS>ATOM
      1 Cl1        -4.7594    0.3443   -0.0014 Cl        1 <0>        -0.0835
      2 S1          0.3775    2.0499    0.0008 S.o2      1 <0>         0.1824
      3 O1          0.1747    2.7428   -1.2586 O.2       1 <0>        -0.1250
      4 O2          0.1765    2.7395    1.2624 O.2       1 <0>        -0.1250
      5 N1          1.0450   -0.8834    0.0009 N.pl3     1 <0>        -0.2012
      6 N2          1.8607    1.3773   -0.0011 N.2       1 <0>         0.0902
      7 C1         -0.7857    0.7231    0.0001 C.ar      1 <0>         0.1802
      8 C2         -0.3219   -0.5917    0.0006 C.ar      1 <0>         0.1476
      9 C3          2.0184    0.0897   -0.0011 C.2       1 <0>         0.3148
     10 C4         -2.1465    1.0309   -0.0004 C.ar      1 <0>        -0.0105
     11 C5         -1.2707   -1.6212    0.0006 C.ar      1 <0>        -0.0136
     12 C6         -3.0748   -0.0066   -0.0006 C.ar      1 <0>         0.0432
     13 C7         -2.6383   -1.3311   -0.0002 C.ar      1 <0>        -0.0395
     14 C8          3.4441   -0.4152   -0.0010 C.3       1 <0>         0.0415
     15 H1          1.3034   -1.8645    0.0014 H         1 <0>         0.2982
     16 H2         -2.4769    2.0662   -0.0007 H         1 <0>         0.0654
     17 H3         -0.9526   -2.6614    0.0008 H         1 <0>         0.0659
     18 H4         -3.3519   -2.1514   -0.0003 H         1 <0>         0.0633
     19 H5          3.6155   -1.0170    0.8963 H         1 <0>         0.0352
     20 H6          4.1535    0.4172   -0.0132 H         1 <0>         0.0352
     21 H7          3.6092   -1.0374   -0.8854 H         1 <0>         0.0352
@<TRIPOS>BOND
     1    1   12 1
     2    2    3 2
     3    2    4 2
     4    2    6 1
     5    2    7 1
     6    5    8 1
     7    5    9 1
     8    5   15 1
     9    6    9 2
    10    7    8 ar
    11    7   10 ar
    12    8   11 ar
    13    9   14 1
    14   10   12 ar
    15   10   16 1
    16   11   13 ar
    17   11   17 1
    18   12   13 ar
    19   13   18 1
    20   14   19 1
    21   14   20 1
    22   14   21 1
