@<TRIPOS>MOLECULE
DB01195
   48    49     0     0     0
SMALL
USER_CHARGES

@<TRIPOS>ATOM
      1 F1          2.0495   -2.3956    0.0219 F         1 <0>        -0.1671
      2 F2          1.9791   -4.1737   -1.2398 F         1 <0>        -0.1671
      3 F3          1.7184   -4.3542    0.9225 F         1 <0>        -0.1671
      4 F4         -6.1145    1.5373   -2.1120 F         1 <0>        -0.1671
      5 F5         -5.8620    3.5387   -1.2821 F         1 <0>        -0.1671
      6 F6         -7.1859    2.1046   -0.2990 F         1 <0>        -0.1671
      7 O1          0.0874   -0.4287    2.5820 O.2       1 <0>        -0.2701
      8 O2         -0.5701   -2.7637    0.8494 O.3       1 <0>        -0.4823
      9 O3         -5.0637    0.3570    0.1656 O.3       1 <0>        -0.4830
     10 N1          3.7647    1.7748    0.9943 N.3       1 <0>        -0.3118
     11 N2          0.1309    1.0492    0.7935 N.am      1 <0>        -0.3098
     12 C1          2.5581    1.0644    0.5522 C.3       1 <0>         0.0231
     13 C2          2.4609    1.0582   -0.9796 C.3       1 <0>        -0.0361
     14 C3          3.7162    0.4619   -1.6106 C.3       1 <0>        -0.0504
     15 C4          4.9648    1.1541   -1.0751 C.3       1 <0>        -0.0404
     16 C5          4.9792    1.1655    0.4516 C.3       1 <0>        -0.0038
     17 C6          1.3302    1.7365    1.1642 C.3       1 <0>         0.0273
     18 C7         -0.4049    0.0040    1.5433 C.2       1 <0>         0.2478
     19 C8         -1.6414   -0.6234    1.0097 C.ar      1 <0>         0.0817
     20 C9         -1.6728   -1.9798    0.6858 C.ar      1 <0>         0.1332
     21 C10        -2.7810    0.1618    0.8355 C.ar      1 <0>        -0.0043
     22 C11        -3.9520   -0.4092    0.3371 C.ar      1 <0>         0.1219
     23 C12        -2.8437   -2.5509    0.1872 C.ar      1 <0>        -0.0157
     24 C13        -3.9832   -1.7656    0.0129 C.ar      1 <0>        -0.0164
     25 C14        -0.0493   -3.4002   -0.3154 C.3       1 <0>         0.1842
     26 C15        -4.8612    1.7373   -0.1326 C.3       1 <0>         0.1842
     27 C16         1.4367   -3.5870   -0.1519 C.3       1 <0>         0.4236
     28 C17        -6.0168    2.2370   -0.9603 C.3       1 <0>         0.4236
     29 H1          2.6053    0.0268    0.9098 H         1 <0>         0.0476
     30 H2          1.5958    0.4736   -1.3133 H         1 <0>         0.0281
     31 H3          2.3199    2.0805   -1.3545 H         1 <0>         0.0281
     32 H4          3.7660   -0.6101   -1.3836 H         1 <0>         0.0266
     33 H5          3.6712    0.5585   -2.7009 H         1 <0>         0.0266
     34 H6          5.0001    2.1844   -1.4510 H         1 <0>         0.0277
     35 H7          5.8598    0.6458   -1.4511 H         1 <0>         0.0277
     36 H8          5.0939    0.1454    0.8380 H         1 <0>         0.0424
     37 H9          5.8470    1.7379    0.7974 H         1 <0>         0.0424
     38 H10         3.8114    1.7676    2.0129 H         1 <0>         0.1223
     39 H11         1.2318    2.7723    0.8192 H         1 <0>         0.0477
     40 H12         1.4060    1.7552    2.2579 H         1 <0>         0.0477
     41 H13        -0.3383    1.3350   -0.0613 H         1 <0>         0.1491
     42 H14        -2.7393    1.2078    1.1270 H         1 <0>         0.0663
     43 H15        -2.8865   -3.6076   -0.0616 H         1 <0>         0.0655
     44 H16        -4.8931   -2.2162   -0.3743 H         1 <0>         0.0655
     45 H17        -0.5357   -4.3737   -0.4379 H         1 <0>         0.0788
     46 H18        -0.2395   -2.7956   -1.2109 H         1 <0>         0.0788
     47 H19        -4.8035    2.3038    0.8030 H         1 <0>         0.0788
     48 H20        -3.9458    1.8983   -0.7157 H         1 <0>         0.0788
@<TRIPOS>BOND
     1    1   27 1
     2    2   27 1
     3    3   27 1
     4    4   28 1
     5    5   28 1
     6    6   28 1
     7    7   18 2
     8    8   20 1
     9    8   25 1
    10    9   22 1
    11    9   26 1
    12   10   12 1
    13   10   16 1
    14   10   38 1
    15   11   17 1
    16   11   18 am
    17   11   41 1
    18   12   13 1
    19   12   17 1
    20   12   29 1
    21   13   14 1
    22   13   30 1
    23   13   31 1
    24   14   15 1
    25   14   32 1
    26   14   33 1
    27   15   16 1
    28   15   34 1
    29   15   35 1
    30   16   36 1
    31   16   37 1
    32   17   39 1
    33   17   40 1
    34   18   19 1
    35   19   20 ar
    36   19   21 ar
    37   20   23 ar
    38   21   22 ar
    39   21   42 1
    40   22   24 ar
    41   23   24 ar
    42   23   43 1
    43   24   44 1
    44   25   27 1
    45   25   45 1
    46   25   46 1
    47   26   28 1
    48   26   47 1
    49   26   48 1
