@<TRIPOS>MOLECULE
DB01000
   46    48     0     0     0
SMALL
USER_CHARGES

@<TRIPOS>ATOM
      1 S1          1.3554    0.9863   -0.4714 S.3       1 <0>        -0.1273
      2 O1          1.8293   -3.2394    0.6824 O.2       1 <0>        -0.2734
      3 O2          5.6735   -0.4375    0.8818 O.3       1 <0>        -0.4793
      4 O3         -2.2560   -1.3497   -1.6889 O.2       1 <0>        -0.2738
      5 O4          5.0971   -1.8832   -0.7836 O.2       1 <0>        -0.2489
      6 N1          2.5124   -1.3345   -0.5320 N.am      1 <0>        -0.2708
      7 N2         -0.6265   -1.3176   -0.0345 N.am      1 <0>        -0.3002
      8 N3         -2.8638   -1.7603    1.5641 N.3       1 <0>        -0.3174
      9 C1          1.4922   -0.6316   -1.3155 C.3       1 <0>         0.1005
     10 C2          0.5023   -1.7223   -0.8842 C.3       1 <0>         0.1277
     11 C3          3.3997   -0.5660    0.3175 C.3       1 <0>         0.1379
     12 C4          3.1524    0.9277    0.0154 C.3       1 <0>         0.0417
     13 C5          1.6849   -2.3331   -0.1063 C.2       1 <0>         0.2402
     14 C6         -2.9198   -0.7309    0.5243 C.3       1 <0>         0.0936
     15 C7          3.9764    1.4861   -1.1528 C.3       1 <0>        -0.0484
     16 C8          3.3584    1.7904    1.2618 C.3       1 <0>        -0.0484
     17 C9         -2.5134    0.6232    1.1248 C.3       1 <0>        -0.0263
     18 C10        -4.3352   -0.6841   -0.0709 C.3       1 <0>        -0.0263
     19 C11        -1.9224   -1.1656   -0.5200 C.2       1 <0>         0.2337
     20 C12         4.7903   -1.0497    0.0556 C.2       1 <0>         0.3269
     21 C13        -2.7143    1.7813    0.1454 C.3       1 <0>        -0.0509
     22 C14        -4.5229    0.4834   -1.0418 C.3       1 <0>        -0.0509
     23 C15        -4.1358    1.8140   -0.4054 C.3       1 <0>        -0.0529
     24 H1          1.7282   -0.5932   -2.3828 H         1 <0>         0.0640
     25 H2          0.1839   -2.3766   -1.7054 H         1 <0>         0.0622
     26 H3          3.1486   -0.8160    1.3572 H         1 <0>         0.0631
     27 H4         -0.4713   -1.1787    0.9611 H         1 <0>         0.1496
     28 H5          3.6670    2.5066   -1.4089 H         1 <0>         0.0244
     29 H6          5.0411    1.5359   -0.8993 H         1 <0>         0.0244
     30 H7          3.8849    0.8722   -2.0558 H         1 <0>         0.0244
     31 H8          3.0924    2.8373    1.0742 H         1 <0>         0.0244
     32 H9          2.7533    1.4384    2.1055 H         1 <0>         0.0244
     33 H10         4.4053    1.7773    1.5836 H         1 <0>         0.0244
     34 H11        -1.4755    0.6351    1.4765 H         1 <0>         0.0288
     35 H12        -3.1300    0.8256    2.0122 H         1 <0>         0.0288
     36 H13        -5.0709   -0.5751    0.7381 H         1 <0>         0.0288
     37 H14        -4.5834   -1.6213   -0.5862 H         1 <0>         0.0288
     38 H15        -2.0031    1.6945   -0.6845 H         1 <0>         0.0266
     39 H16        -2.4959    2.7291    0.6507 H         1 <0>         0.0266
     40 H17        -5.5748    0.5256   -1.3492 H         1 <0>         0.0266
     41 H18        -3.9456    0.3369   -1.9599 H         1 <0>         0.0266
     42 H19        -4.8361    2.0479    0.4062 H         1 <0>         0.0265
     43 H20        -4.2268    2.6173   -1.1453 H         1 <0>         0.0265
     44 H21        -3.2033   -2.6481    1.1947 H         1 <0>         0.1192
     45 H22        -3.4953   -1.5169    2.3267 H         1 <0>         0.1192
     46 H23         6.5930   -0.7409    0.7248 H         1 <0>         0.2951
@<TRIPOS>BOND
     1    1    9 1
     2    1   12 1
     3    2   13 2
     4    3   20 1
     5    3   46 1
     6    4   19 2
     7    5   20 2
     8    6    9 1
     9    6   11 1
    10    6   13 am
    11    7   10 1
    12    7   19 am
    13    7   27 1
    14    8   14 1
    15    8   44 1
    16    8   45 1
    17    9   10 1
    18    9   24 1
    19   10   13 1
    20   10   25 1
    21   11   12 1
    22   11   20 1
    23   11   26 1
    24   12   15 1
    25   12   16 1
    26   14   17 1
    27   14   18 1
    28   14   19 1
    29   15   28 1
    30   15   29 1
    31   15   30 1
    32   16   31 1
    33   16   32 1
    34   16   33 1
    35   17   21 1
    36   17   34 1
    37   17   35 1
    38   18   22 1
    39   18   36 1
    40   18   37 1
    41   21   23 1
    42   21   38 1
    43   21   39 1
    44   22   23 1
    45   22   40 1
    46   22   41 1
    47   23   42 1
    48   23   43 1
