@<TRIPOS>MOLECULE
DB01133
   26    26     0     0     0
SMALL
USER_CHARGES

@<TRIPOS>ATOM
      1 Cl1         5.4539   -0.2361   -0.9199 Cl        1 <0>        -0.0835
      2 S1         -0.3747   -0.7612    1.3921 S.3       1 <0>        -0.0975
      3 P1         -3.0834   -0.5694    0.4820 P.3       1 <0>         0.3526
      4 P2         -0.7564    1.3857   -0.5026 P.3       1 <0>         0.3526
      5 O1         -3.9274   -0.3332   -0.8773 O.3       1 <0>        -0.3229
      6 O2         -3.1448   -2.1747    0.6691 O.3       1 <0>        -0.3229
      7 O3         -1.7372    1.8102   -1.7170 O.3       1 <0>        -0.3229
      8 O4         -1.2443    2.3450    0.7042 O.3       1 <0>        -0.3229
      9 O5         -3.5523    0.2365    1.6572 O.2       1 <0>        -0.2570
     10 O6          0.7045    1.4589   -0.8332 O.2       1 <0>        -0.2570
     11 C1         -1.3823   -0.2463   -0.0478 C.3       1 <0>         0.2111
     12 C2          1.2796   -0.6117    0.7355 C.ar      1 <0>         0.0094
     13 C3          1.6555   -1.3631   -0.3755 C.ar      1 <0>        -0.0469
     14 C4          2.1882    0.2562    1.3365 C.ar      1 <0>        -0.0469
     15 C5          2.9473   -1.2458   -0.8883 C.ar      1 <0>        -0.0423
     16 C6          3.4801    0.3734    0.8236 C.ar      1 <0>        -0.0423
     17 C7          3.8598   -0.3778   -0.2887 C.ar      1 <0>         0.0410
     18 H1         -1.1810   -0.9231   -0.8841 H         1 <0>         0.0668
     19 H2          0.9644   -2.0523   -0.8537 H         1 <0>         0.0629
     20 H3          1.9092    0.8501    2.2032 H         1 <0>         0.0629
     21 H4         -4.9049   -0.4106   -0.8484 H         1 <0>         0.2198
     22 H5         -3.9806   -2.5847    0.9779 H         1 <0>         0.2198
     23 H6         -1.5830    2.6639   -2.1747 H         1 <0>         0.2198
     24 H7         -1.0005    3.2948    0.6833 H         1 <0>         0.2198
     25 H8          3.2298   -1.8387   -1.7545 H         1 <0>         0.0632
     26 H9          4.1804    1.0541    1.3009 H         1 <0>         0.0632
@<TRIPOS>BOND
     1    1   17 1
     2    2   11 1
     3    2   12 1
     4    3    5 1
     5    3    6 1
     6    3    9 2
     7    3   11 1
     8    4    7 1
     9    4    8 1
    10    4   10 2
    11    4   11 1
    12    5   21 1
    13    6   22 1
    14    7   23 1
    15    8   24 1
    16   11   18 1
    17   12   13 ar
    18   12   14 ar
    19   13   15 ar
    20   13   19 1
    21   14   16 ar
    22   14   20 1
    23   15   17 ar
    24   15   25 1
    25   16   17 ar
    26   16   26 1
