@<TRIPOS>MOLECULE
DB01051
   80    83     0     0     0
SMALL
USER_CHARGES

@<TRIPOS>ATOM
      1 O1         -4.6608    0.0373    0.5216 O.3       1 <0>        -0.3307
      2 O2         -7.1196    0.4075    2.2146 O.3       1 <0>        -0.3732
      3 O3         -7.5560    1.0301   -1.3371 O.3       1 <0>        -0.4417
      4 O4         -4.4317   -1.9043   -0.7478 O.3       1 <0>        -0.4604
      5 O5         -7.1575   -1.6796   -1.5676 O.3       1 <0>        -0.3818
      6 O6         -9.6326    1.7955   -0.7029 O.2       1 <0>        -0.2267
      7 O7          0.0030   -2.8144    0.8089 O.3       1 <0>        -0.4203
      8 O8          1.6541   -0.7448   -2.4321 O.3       1 <0>        -0.5040
      9 O9          2.0904   -3.2048    1.6390 O.2       1 <0>        -0.2430
     10 O10         3.6450   -0.8376    1.6068 O.2       1 <0>        -0.2698
     11 O11         9.6627   -1.5210   -0.2266 O.3       1 <0>        -0.5065
     12 N1         -8.6602    2.4659   -2.6757 N.am      1 <0>        -0.2950
     13 N2          3.3220   -1.9138   -0.4292 N.am      1 <0>        -0.2729
     14 C1         -5.3125    1.2845    0.8115 C.3       1 <0>         0.0976
     15 C2         -6.8429    1.0788    0.9812 C.3       1 <0>         0.1262
     16 C3         -7.4758    0.2536   -0.1449 C.3       1 <0>         0.1648
     17 C4         -6.6552   -1.0094   -0.4154 C.3       1 <0>         0.1565
     18 C5         -5.1705   -0.6896   -0.5959 C.3       1 <0>         0.2320
     19 C6         -4.6846    1.7774    2.1286 C.3       1 <0>        -0.0334
     20 C7         -4.9734    2.3222   -0.2722 C.3       1 <0>        -0.0334
     21 C8         -8.4367    0.6812    2.6678 C.3       1 <0>         0.0371
     22 C9         -3.0744   -1.7863   -0.8937 C.ar      1 <0>         0.1304
     23 C10        -8.6983    1.7633   -1.4969 C.2       1 <0>         0.3981
     24 C11        -2.2027   -2.3678    0.0196 C.ar      1 <0>         0.0343
     25 C12        -2.5646   -1.0641   -1.9706 C.ar      1 <0>        -0.0187
     26 C13        -0.8263   -2.2205   -0.1641 C.ar      1 <0>         0.1490
     27 C14        -0.2839   -1.5148   -1.2393 C.ar      1 <0>         0.0613
     28 C15        -1.1814   -0.9267   -2.1413 C.ar      1 <0>        -0.0440
     29 C16        -2.7388   -3.1344    1.1846 C.3       1 <0>        -0.0327
     30 C17         1.1786   -1.4285   -1.3339 C.2       1 <0>         0.1557
     31 C18         1.9556   -1.9796   -0.3901 C.2       1 <0>         0.1617
     32 C19         1.3865   -2.7088    0.7653 C.2       1 <0>         0.3625
     33 C20         4.0848   -1.3439    0.5774 C.2       1 <0>         0.2485
     34 C21         5.5557   -1.3863    0.3685 C.ar      1 <0>         0.0375
     35 C22         7.7520   -0.4574    0.7555 C.ar      1 <0>        -0.0015
     36 C23         6.3716   -0.4171    0.9518 C.ar      1 <0>        -0.0427
     37 C24         6.1200   -2.3956   -0.4118 C.ar      1 <0>        -0.0462
     38 C25         8.6105    0.5878    1.3879 C.3       1 <0>        -0.0058
     39 C26         8.3163   -1.4668   -0.0245 C.ar      1 <0>         0.1203
     40 C27         7.5002   -2.4359   -0.6083 C.ar      1 <0>        -0.0192
     41 C28         8.5287    1.9194    0.6834 C.2       1 <0>        -0.0809
     42 C29         9.5189    2.5985    0.0736 C.2       1 <0>        -0.0793
     43 C30        10.9189    2.0444    0.0481 C.3       1 <0>        -0.0440
     44 C31         9.3663    3.9266   -0.6117 C.3       1 <0>        -0.0440
     45 H1         -7.2961    2.0793    1.0153 H         1 <0>         0.0663
     46 H2         -8.4809   -0.1000    0.1073 H         1 <0>         0.0790
     47 H3         -6.7602   -1.6997    0.4314 H         1 <0>         0.0694
     48 H4         -5.0479   -0.1073   -1.5157 H         1 <0>         0.1085
     49 H5         -5.3290    2.0391   -1.2649 H         1 <0>         0.0258
     50 H6         -5.3988    3.3022   -0.0306 H         1 <0>         0.0258
     51 H7         -3.8867    2.4336   -0.3692 H         1 <0>         0.0258
     52 H8         -5.1494    2.7070    2.4731 H         1 <0>         0.0258
     53 H9         -4.7733    1.0252    2.9205 H         1 <0>         0.0258
     54 H10        -3.6092    1.9533    2.0052 H         1 <0>         0.0258
     55 H11        -8.0976   -1.8710   -1.4092 H         1 <0>         0.2102
     56 H12        -8.5537    0.2154    3.6508 H         1 <0>         0.0524
     57 H13        -9.1998    0.2578    2.0116 H         1 <0>         0.0524
     58 H14        -8.5948    1.7578    2.7879 H         1 <0>         0.0524
     59 H15        -3.2247   -0.6119   -2.7057 H         1 <0>         0.0654
     60 H16        -0.8202   -0.3596   -2.9961 H         1 <0>         0.0627
     61 H17        -7.8627    2.4069   -3.3000 H         1 <0>         0.1482
     62 H18        -9.4275    3.0663   -2.9582 H         1 <0>         0.1482
     63 H19        -2.2023   -4.0817    1.3062 H         1 <0>         0.0280
     64 H20        -3.7962   -3.3935    1.0710 H         1 <0>         0.0280
     65 H21        -2.6325   -2.5445    2.1009 H         1 <0>         0.0280
     66 H22         3.7485   -1.9692   -1.3508 H         1 <0>         0.1554
     67 H23         2.6233   -0.7069   -2.3709 H         1 <0>         0.2923
     68 H24         5.9355    0.3731    1.5587 H         1 <0>         0.0629
     69 H25         5.5180   -3.1792   -0.8635 H         1 <0>         0.0626
     70 H26         8.2718    0.7386    2.4224 H         1 <0>         0.0357
     71 H27         9.6346    0.2238    1.4983 H         1 <0>         0.0357
     72 H28         7.9273   -3.2305   -1.2143 H         1 <0>         0.0654
     73 H29         7.5411    2.3803    0.6852 H         1 <0>         0.0575
     74 H30         9.8684   -2.2850   -0.7922 H         1 <0>         0.2921
     75 H31         9.9843    4.6851   -0.1210 H         1 <0>         0.0274
     76 H32         9.6690    3.8508   -1.6610 H         1 <0>         0.0274
     77 H33         8.3283    4.2745   -0.5879 H         1 <0>         0.0274
     78 H34        11.0712    1.4456   -0.8555 H         1 <0>         0.0274
     79 H35        11.6500    2.8613    0.0349 H         1 <0>         0.0274
     80 H36        11.1705    1.4425    0.9239 H         1 <0>         0.0274
@<TRIPOS>BOND
     1    1   14 1
     2    1   18 1
     3    2   15 1
     4    2   21 1
     5    3   16 1
     6    3   23 1
     7    4   18 1
     8    4   22 1
     9    5   17 1
    10    5   55 1
    11    6   23 2
    12    7   26 1
    13    7   32 1
    14    8   30 1
    15    8   67 1
    16    9   32 2
    17   10   33 2
    18   11   39 1
    19   11   74 1
    20   12   23 am
    21   12   61 1
    22   12   62 1
    23   13   31 1
    24   13   33 am
    25   13   66 1
    26   14   15 1
    27   14   19 1
    28   14   20 1
    29   15   16 1
    30   15   45 1
    31   16   17 1
    32   16   46 1
    33   17   18 1
    34   17   47 1
    35   18   48 1
    36   19   52 1
    37   19   53 1
    38   19   54 1
    39   20   49 1
    40   20   50 1
    41   20   51 1
    42   21   56 1
    43   21   57 1
    44   21   58 1
    45   22   24 ar
    46   22   25 ar
    47   24   26 ar
    48   24   29 1
    49   25   28 ar
    50   25   59 1
    51   26   27 ar
    52   27   28 ar
    53   27   30 1
    54   28   60 1
    55   29   63 1
    56   29   64 1
    57   29   65 1
    58   30   31 2
    59   31   32 1
    60   33   34 1
    61   34   36 ar
    62   34   37 ar
    63   35   36 ar
    64   35   38 1
    65   35   39 ar
    66   36   68 1
    67   37   40 ar
    68   37   69 1
    69   38   41 1
    70   38   70 1
    71   38   71 1
    72   39   40 ar
    73   40   72 1
    74   41   42 2
    75   41   73 1
    76   42   43 1
    77   42   44 1
    78   43   78 1
    79   43   79 1
    80   43   80 1
    81   44   75 1
    82   44   76 1
    83   44   77 1
