@<TRIPOS>MOLECULE
DB01228
   54    56     0     0     0
SMALL
USER_CHARGES

@<TRIPOS>ATOM
      1 O1         -0.0588   -4.1805    0.6110 O.2       1 <0>        -0.2699
      2 O2         -5.5617   -1.2145    0.1142 O.3       1 <0>        -0.4951
      3 N1          0.4020    2.2529   -0.8103 N.3       1 <0>        -0.3024
      4 N2          0.7057   -2.0827   -0.1245 N.am      1 <0>        -0.2813
      5 C1          1.7123    2.4135   -0.1497 C.3       1 <0>         0.0104
      6 C2          1.6738    3.3653    1.0601 C.3       1 <0>        -0.0373
      7 C3          0.5599    3.0228    2.0447 C.3       1 <0>        -0.0505
      8 C4         -0.6792    1.9365    0.1348 C.3       1 <0>        -0.0011
      9 C5         -0.7761    2.8939    1.3237 C.3       1 <0>        -0.0402
     10 C6          2.2815    1.0402    0.2341 C.3       1 <0>        -0.0333
     11 C7          2.3560    0.1241   -0.9811 C.3       1 <0>        -0.0245
     12 C8          0.0671    3.4091   -1.6425 C.3       1 <0>        -0.0125
     13 C9          2.9232   -1.2233   -0.6135 C.ar      1 <0>        -0.0261
     14 C10         2.0896   -2.2562   -0.2074 C.ar      1 <0>         0.0369
     15 C11         4.2978   -1.4042   -0.6918 C.ar      1 <0>        -0.0568
     16 C12         2.6403   -3.4933    0.1269 C.ar      1 <0>        -0.0402
     17 C13         4.8484   -2.6414   -0.3573 C.ar      1 <0>        -0.0614
     18 C14         4.0198   -3.6860    0.0522 C.ar      1 <0>        -0.0600
     19 C15        -0.2576   -3.0205    0.2660 C.2       1 <0>         0.2483
     20 C16        -1.6643   -2.5419    0.2246 C.ar      1 <0>         0.0372
     21 C17        -2.5874   -3.1176    1.0722 C.ar      1 <0>        -0.0462
     22 C18        -2.0005   -1.5379   -0.6590 C.ar      1 <0>        -0.0462
     23 C19        -3.9076   -2.6685    1.0343 C.ar      1 <0>        -0.0192
     24 C20        -3.3206   -1.0887   -0.6968 C.ar      1 <0>        -0.0192
     25 C21        -4.2741   -1.6540    0.1498 C.ar      1 <0>         0.1201
     26 C22        -5.8673   -0.1748   -0.8140 C.3       1 <0>         0.0788
     27 H1          2.4213    2.8390   -0.8741 H         1 <0>         0.0462
     28 H2          1.5281    4.3943    0.7074 H         1 <0>         0.0280
     29 H3          2.6383    3.3548    1.5819 H         1 <0>         0.0280
     30 H4          0.7918    2.0846    2.5619 H         1 <0>         0.0266
     31 H5          0.4933    3.7986    2.8156 H         1 <0>         0.0266
     32 H6         -0.5300    0.9199    0.5163 H         1 <0>         0.0426
     33 H7         -1.6423    1.9039   -0.3899 H         1 <0>         0.0426
     34 H8          1.6847    0.5681    1.0235 H         1 <0>         0.0283
     35 H9          3.2865    1.1742    0.6568 H         1 <0>         0.0283
     36 H10        -1.1076    3.8825    0.9844 H         1 <0>         0.0278
     37 H11        -1.5371    2.5319    2.0247 H         1 <0>         0.0278
     38 H12         1.4003    0.0122   -1.5027 H         1 <0>         0.0314
     39 H13         3.0118    0.5846   -1.7339 H         1 <0>         0.0314
     40 H14        -0.0367    4.3365   -1.0706 H         1 <0>         0.0391
     41 H15         0.8358    3.5647   -2.4079 H         1 <0>         0.0391
     42 H16        -0.8707    3.2339   -2.1817 H         1 <0>         0.0391
     43 H17         4.9547   -0.5981   -1.0067 H         1 <0>         0.0621
     44 H18         2.0738   -4.3533    0.4527 H         1 <0>         0.0636
     45 H19         5.9227   -2.7911   -0.4149 H         1 <0>         0.0618
     46 H20         0.3781   -1.1430   -0.3109 H         1 <0>         0.1551
     47 H21         4.4502   -4.6488    0.3124 H         1 <0>         0.0618
     48 H22        -2.3176   -3.9036    1.7710 H         1 <0>         0.0626
     49 H23        -1.3014   -1.0994   -1.3636 H         1 <0>         0.0626
     50 H24        -4.6456   -3.1113    1.6975 H         1 <0>         0.0654
     51 H25        -3.5387   -0.3036   -1.4129 H         1 <0>         0.0654
     52 H26        -6.9332    0.0516   -0.7062 H         1 <0>         0.0660
     53 H27        -5.3200    0.7453   -0.5824 H         1 <0>         0.0660
     54 H28        -5.7128   -0.5006   -1.8482 H         1 <0>         0.0660
@<TRIPOS>BOND
     1    1   19 2
     2    2   25 1
     3    2   26 1
     4    3    5 1
     5    3    8 1
     6    3   12 1
     7    4   14 1
     8    4   19 am
     9    4   46 1
    10    5    6 1
    11    5   10 1
    12    5   27 1
    13    6    7 1
    14    6   28 1
    15    6   29 1
    16    7    9 1
    17    7   30 1
    18    7   31 1
    19    8    9 1
    20    8   32 1
    21    8   33 1
    22    9   36 1
    23    9   37 1
    24   10   11 1
    25   10   34 1
    26   10   35 1
    27   11   13 1
    28   11   38 1
    29   11   39 1
    30   12   40 1
    31   12   41 1
    32   12   42 1
    33   13   14 ar
    34   13   15 ar
    35   14   16 ar
    36   15   17 ar
    37   15   43 1
    38   16   18 ar
    39   16   44 1
    40   17   18 ar
    41   17   45 1
    42   18   47 1
    43   19   20 1
    44   20   21 ar
    45   20   22 ar
    46   21   23 ar
    47   21   48 1
    48   22   24 ar
    49   22   49 1
    50   23   25 ar
    51   23   50 1
    52   24   25 ar
    53   24   51 1
    54   26   52 1
    55   26   53 1
    56   26   54 1
