@<TRIPOS>MOLECULE
DB01420
   57    60     0     0     0
SMALL
USER_CHARGES

@<TRIPOS>ATOM
      1 O1          3.8002    0.5181   -0.0333 O.3       1 <0>        -0.4608
      2 O2         -6.9349    0.1932   -1.5431 O.2       1 <0>        -0.2927
      3 O3          5.2477   -0.7265   -1.3296 O.2       1 <0>        -0.2509
      4 C1          0.5051   -1.0174   -0.3057 C.3       1 <0>        -0.0290
      5 C2          1.3590    0.2002    0.0973 C.3       1 <0>         0.0081
      6 C3         -0.9222   -0.9466    0.2456 C.3       1 <0>        -0.0337
      7 C4         -1.6115    0.3405   -0.3078 C.3       1 <0>        -0.0288
      8 C5         -3.1086    0.4858    0.1678 C.3       1 <0>        -0.0072
      9 C6          0.7170    1.4527   -0.5122 C.3       1 <0>        -0.0437
     10 C7         -0.7481    1.6102   -0.0666 C.3       1 <0>        -0.0485
     11 C8          2.6998   -0.2119   -0.5400 C.3       1 <0>         0.1087
     12 C9          1.3868   -2.2080    0.0627 C.3       1 <0>        -0.0460
     13 C10        -1.7345   -2.1880   -0.1434 C.3       1 <0>        -0.0459
     14 C11         2.8171   -1.7157   -0.2239 C.3       1 <0>        -0.0149
     15 C12        -3.8540   -0.8327   -0.0761 C.2       1 <0>        -0.0601
     16 C13         1.5264    0.3956    1.6258 C.3       1 <0>        -0.0559
     17 C14        -3.1628   -2.0968    0.3781 C.3       1 <0>        -0.0305
     18 C15        -3.7723    1.6315   -0.6509 C.3       1 <0>        -0.0367
     19 C16        -3.2072    0.8239    1.6726 C.3       1 <0>        -0.0556
     20 C17        -5.2908    1.6371   -0.5717 C.3       1 <0>         0.0107
     21 C18        -5.0715   -0.9144   -0.6388 C.2       1 <0>        -0.0194
     22 C19        -5.8425    0.3000   -0.9896 C.2       1 <0>         0.1561
     23 C20         5.0364    0.1598   -0.5131 C.2       1 <0>         0.3071
     24 C21         6.0957    1.0295    0.1223 C.3       1 <0>         0.0421
     25 C22         7.4921    0.6697   -0.3542 C.3       1 <0>        -0.0552
     26 H1          0.4193   -1.0333   -1.4054 H         1 <0>         0.0310
     27 H2         -0.8837   -0.9046    1.3397 H         1 <0>         0.0307
     28 H3         -1.6453    0.2138   -1.4024 H         1 <0>         0.0312
     29 H4          0.7423    1.3939   -1.6082 H         1 <0>         0.0272
     30 H5          1.2844    2.3505   -0.2389 H         1 <0>         0.0272
     31 H6         -0.7696    1.8881    0.9917 H         1 <0>         0.0268
     32 H7         -1.1705    2.4590   -0.6156 H         1 <0>         0.0268
     33 H8          2.6516   -0.0671   -1.6286 H         1 <0>         0.0739
     34 H9          1.1451   -3.0963   -0.5298 H         1 <0>         0.0269
     35 H10         1.2791   -2.4749    1.1199 H         1 <0>         0.0269
     36 H11        -1.2670   -3.0899    0.2686 H         1 <0>         0.0271
     37 H12        -1.7462   -2.3059   -1.2348 H         1 <0>         0.0271
     38 H13         3.4694   -1.9177    0.6334 H         1 <0>         0.0301
     39 H14         3.2302   -2.2588   -1.0814 H         1 <0>         0.0301
     40 H15         2.0288   -0.4517    2.1028 H         1 <0>         0.0236
     41 H16         2.1300    1.2863    1.8362 H         1 <0>         0.0236
     42 H17         0.5726    0.5299    2.1427 H         1 <0>         0.0236
     43 H18        -3.1554   -2.1235    1.4748 H         1 <0>         0.0310
     44 H19        -3.7117   -2.9897    0.0537 H         1 <0>         0.0310
     45 H20        -3.4891    1.5365   -1.7086 H         1 <0>         0.0278
     46 H21        -3.4043    2.6094   -0.3183 H         1 <0>         0.0278
     47 H22        -2.6366    0.1259    2.2931 H         1 <0>         0.0238
     48 H23        -2.8349    1.8316    1.8850 H         1 <0>         0.0238
     49 H24        -4.2444    0.7869    2.0262 H         1 <0>         0.0238
     50 H25        -5.6826    2.4024   -1.2507 H         1 <0>         0.0345
     51 H26        -5.6454    1.8644    0.4385 H         1 <0>         0.0345
     52 H27        -5.5622   -1.8674   -0.8069 H         1 <0>         0.0652
     53 H28         5.8829    2.0735   -0.1301 H         1 <0>         0.0375
     54 H29         6.0397    0.9042    1.2087 H         1 <0>         0.0375
     55 H30         7.5807    0.7906   -1.4390 H         1 <0>         0.0235
     56 H31         8.2360    1.3144    0.1239 H         1 <0>         0.0235
     57 H32         7.7341   -0.3705   -0.1124 H         1 <0>         0.0235
@<TRIPOS>BOND
     1    1   11 1
     2    1   23 1
     3    2   22 2
     4    3   23 2
     5    4    5 1
     6    4    6 1
     7    4   12 1
     8    4   26 1
     9    5    9 1
    10    5   11 1
    11    5   16 1
    12    6    7 1
    13    6   13 1
    14    6   27 1
    15    7    8 1
    16    7   10 1
    17    7   28 1
    18    8   15 1
    19    8   18 1
    20    8   19 1
    21    9   10 1
    22    9   29 1
    23    9   30 1
    24   10   31 1
    25   10   32 1
    26   11   14 1
    27   11   33 1
    28   12   14 1
    29   12   34 1
    30   12   35 1
    31   13   17 1
    32   13   36 1
    33   13   37 1
    34   14   38 1
    35   14   39 1
    36   15   17 1
    37   15   21 2
    38   16   40 1
    39   16   41 1
    40   16   42 1
    41   17   43 1
    42   17   44 1
    43   18   20 1
    44   18   45 1
    45   18   46 1
    46   19   47 1
    47   19   48 1
    48   19   49 1
    49   20   22 1
    50   20   50 1
    51   20   51 1
    52   21   22 1
    53   21   52 1
    54   23   24 1
    55   24   25 1
    56   24   53 1
    57   24   54 1
    58   25   55 1
    59   25   56 1
    60   25   57 1
