@<TRIPOS>MOLECULE
DB01233
   42    42     0     0     0
SMALL
USER_CHARGES

@<TRIPOS>ATOM
      1 Cl1         4.8794    3.2913   -0.9218 Cl        1 <0>        -0.0816
      2 O1          3.0153   -1.8952    1.1268 O.3       1 <0>        -0.4943
      3 O2          0.8875   -0.5089    1.8815 O.2       1 <0>        -0.2701
      4 N1         -3.3091    0.0605    0.1277 N.3       1 <0>        -0.3014
      5 N2          0.2675    1.0762    0.3055 N.am      1 <0>        -0.3100
      6 N3          6.5804    0.7851   -0.6286 N.pl3     1 <0>        -0.3567
      7 C1         -1.8887    0.0566   -0.2209 C.3       1 <0>         0.0145
      8 C2         -3.8879    1.3839   -0.1008 C.3       1 <0>        -0.0039
      9 C3         -4.0276   -0.9520   -0.6451 C.3       1 <0>        -0.0039
     10 C4         -1.1368    1.0835    0.6129 C.3       1 <0>         0.0247
     11 C5         -5.3490    1.4231    0.3137 C.3       1 <0>        -0.0524
     12 C6         -3.4393   -2.3346   -0.4198 C.3       1 <0>        -0.0524
     13 C7          1.1783    0.2679    0.9756 C.2       1 <0>         0.2477
     14 C8          2.5980    0.3965    0.5575 C.ar      1 <0>         0.0797
     15 C9          3.4429   -0.6904    0.6545 C.ar      1 <0>         0.1340
     16 C10         3.0264    1.6186    0.0780 C.ar      1 <0>        -0.0259
     17 C11         4.7720   -0.5503    0.2557 C.ar      1 <0>         0.0029
     18 C12         5.2286    0.6742   -0.2319 C.ar      1 <0>         0.0466
     19 C13         4.3557    1.7587   -0.3209 C.ar      1 <0>         0.0625
     20 C14         2.4968   -2.8181    0.1713 C.3       1 <0>         0.0788
     21 H1         -1.7353    0.2541   -1.2904 H         1 <0>         0.0442
     22 H2         -1.4280   -0.9131   -0.0038 H         1 <0>         0.0442
     23 H3         -1.4431    2.1103    0.4002 H         1 <0>         0.0475
     24 H4         -1.2715    0.8952    1.6844 H         1 <0>         0.0475
     25 H5         -3.4112    2.1409    0.5273 H         1 <0>         0.0424
     26 H6         -3.7872    1.7044   -1.1452 H         1 <0>         0.0424
     27 H7         -5.0705   -1.0178   -0.3182 H         1 <0>         0.0424
     28 H8         -4.0304   -0.7240   -1.7185 H         1 <0>         0.0424
     29 H9          0.5657    1.6462   -0.4792 H         1 <0>         0.1491
     30 H10        -5.6922    2.4633    0.3522 H         1 <0>         0.0242
     31 H11        -5.5009    0.9934    1.3100 H         1 <0>         0.0242
     32 H12        -6.0003    0.9082   -0.3992 H         1 <0>         0.0242
     33 H13        -4.1322   -3.0929   -0.8026 H         1 <0>         0.0242
     34 H14        -3.2853   -2.5443    0.6443 H         1 <0>         0.0242
     35 H15        -2.4959   -2.4816   -0.9546 H         1 <0>         0.0242
     36 H16         2.3731    2.4851    0.0317 H         1 <0>         0.0641
     37 H17         5.4475   -1.3999    0.3280 H         1 <0>         0.0673
     38 H18         7.1989   -0.0116   -0.5558 H         1 <0>         0.1424
     39 H19         6.9282    1.6661   -0.9833 H         1 <0>         0.1424
     40 H20         1.6472   -2.3869   -0.3677 H         1 <0>         0.0660
     41 H21         2.1551   -3.7085    0.7060 H         1 <0>         0.0660
     42 H22         3.2781   -3.1133   -0.5361 H         1 <0>         0.0660
@<TRIPOS>BOND
     1    1   19 1
     2    2   15 1
     3    2   20 1
     4    3   13 2
     5    4    7 1
     6    4    8 1
     7    4    9 1
     8    5   10 1
     9    5   13 am
    10    5   29 1
    11    6   18 1
    12    6   38 1
    13    6   39 1
    14    7   10 1
    15    7   21 1
    16    7   22 1
    17    8   11 1
    18    8   25 1
    19    8   26 1
    20    9   12 1
    21    9   27 1
    22    9   28 1
    23   10   23 1
    24   10   24 1
    25   11   30 1
    26   11   31 1
    27   11   32 1
    28   12   33 1
    29   12   34 1
    30   12   35 1
    31   13   14 1
    32   14   15 ar
    33   14   16 ar
    34   15   17 ar
    35   16   19 ar
    36   16   36 1
    37   17   18 ar
    38   17   37 1
    39   18   19 ar
    40   20   40 1
    41   20   41 1
    42   20   42 1
