@<TRIPOS>MOLECULE
DB01608
   49    52     0     0     0
SMALL
USER_CHARGES

@<TRIPOS>ATOM
      1 S1          5.2518   -0.3284   -0.1740 S.3       1 <0>        -0.0857
      2 O1         -5.7209   -1.0862   -0.1457 O.3       1 <0>        -0.3917
      3 N1         -2.6048    0.7845    0.2335 N.3       1 <0>        -0.3021
      4 N2          2.2787    0.1363    0.6070 N.pl3     1 <0>        -0.2982
      5 N3          0.2791   -5.4631    0.2782 N.1       1 <0>        -0.1909
      6 C1         -2.7289   -0.4669   -0.5257 C.3       1 <0>         0.0012
      7 C2         -3.8434    1.0884    0.9627 C.3       1 <0>         0.0012
      8 C3         -5.1981    0.0072   -0.8963 C.3       1 <0>         0.0576
      9 C4         -3.8710   -0.3852   -1.5434 C.3       1 <0>        -0.0140
     10 C5         -5.0293    1.2307    0.0031 C.3       1 <0>        -0.0140
     11 C6         -1.4723    0.7128    1.1568 C.3       1 <0>         0.0003
     12 C7         -0.1523    0.4600    0.4252 C.3       1 <0>        -0.0240
     13 C8          1.0455    0.3622    1.3719 C.3       1 <0>         0.0185
     14 C9          2.6396   -1.2071    0.3322 C.ar      1 <0>         0.0491
     15 C10         2.9790    1.2793    0.1448 C.ar      1 <0>         0.0479
     16 C11         3.9523   -1.5416   -0.0553 C.ar      1 <0>         0.0342
     17 C12         4.3254    1.1912   -0.2609 C.ar      1 <0>         0.0341
     18 C13         1.7025   -2.2615    0.3974 C.ar      1 <0>        -0.0219
     19 C14         2.3581    2.5429    0.0351 C.ar      1 <0>        -0.0393
     20 C15         4.3030   -2.8745   -0.3342 C.ar      1 <0>        -0.0450
     21 C16         5.0132    2.3264   -0.7253 C.ar      1 <0>        -0.0462
     22 C17         2.0552   -3.5839    0.1144 C.ar      1 <0>         0.0536
     23 C18         3.0450    3.6670   -0.4321 C.ar      1 <0>        -0.0599
     24 C19         3.3577   -3.8912   -0.2488 C.ar      1 <0>        -0.0432
     25 C20         4.3748    3.5593   -0.8095 C.ar      1 <0>        -0.0606
     26 C21         1.0754   -4.6206    0.2047 C.1       1 <0>         0.0992
     27 H1         -2.8853   -1.3224    0.1441 H         1 <0>         0.0427
     28 H2         -1.8436   -0.6754   -1.1306 H         1 <0>         0.0427
     29 H3         -3.7329    2.0340    1.5075 H         1 <0>         0.0427
     30 H4         -4.0611    0.3095    1.7051 H         1 <0>         0.0427
     31 H5         -5.9349    0.2336   -1.6752 H         1 <0>         0.0594
     32 H6         -3.6133    0.3576   -2.3094 H         1 <0>         0.0302
     33 H7         -3.9671   -1.3544   -2.0469 H         1 <0>         0.0302
     34 H8         -5.9409    1.3933    0.5901 H         1 <0>         0.0302
     35 H9         -4.8766    2.1193   -0.6226 H         1 <0>         0.0302
     36 H10        -1.3847    1.6629    1.6987 H         1 <0>         0.0427
     37 H11        -1.6303   -0.0734    1.9069 H         1 <0>         0.0427
     38 H12        -0.0130    1.2474   -0.3228 H         1 <0>         0.0293
     39 H13        -0.1956   -0.4599   -0.1549 H         1 <0>         0.0293
     40 H14         0.8869   -0.4310    2.1146 H         1 <0>         0.0468
     41 H15         1.1229    1.2684    1.9873 H         1 <0>         0.0468
     42 H16        -5.8293   -1.8358   -0.7553 H         1 <0>         0.2098
     43 H17         0.6741   -2.0935    0.7016 H         1 <0>         0.0649
     44 H18         1.3282    2.7137    0.3293 H         1 <0>         0.0636
     45 H19         5.3197   -3.1351   -0.6218 H         1 <0>         0.0630
     46 H20         6.0566    2.2616   -1.0273 H         1 <0>         0.0629
     47 H21         2.5374    4.6253   -0.4940 H         1 <0>         0.0618
     48 H22         3.6536   -4.9136   -0.4700 H         1 <0>         0.0631
     49 H23         4.9138    4.4300   -1.1698 H         1 <0>         0.0618
@<TRIPOS>BOND
     1    1   16 1
     2    1   17 1
     3    2    8 1
     4    2   42 1
     5    3    6 1
     6    3    7 1
     7    3   11 1
     8    4   13 1
     9    4   14 1
    10    4   15 1
    11    5   26 3
    12    6    9 1
    13    6   27 1
    14    6   28 1
    15    7   10 1
    16    7   29 1
    17    7   30 1
    18    8    9 1
    19    8   10 1
    20    8   31 1
    21    9   32 1
    22    9   33 1
    23   10   34 1
    24   10   35 1
    25   11   12 1
    26   11   36 1
    27   11   37 1
    28   12   13 1
    29   12   38 1
    30   12   39 1
    31   13   40 1
    32   13   41 1
    33   14   16 ar
    34   14   18 ar
    35   15   17 ar
    36   15   19 ar
    37   16   20 ar
    38   17   21 ar
    39   18   22 ar
    40   18   43 1
    41   19   23 ar
    42   19   44 1
    43   20   24 ar
    44   20   45 1
    45   21   25 ar
    46   21   46 1
    47   22   24 ar
    48   22   26 1
    49   23   25 ar
    50   23   47 1
    51   24   48 1
    52   25   49 1
