@<TRIPOS>MOLECULE
DB01073
   32    34     0     0     0
SMALL
USER_CHARGES

@<TRIPOS>ATOM
      1 F1         -1.9019    3.3451   -0.3021 F         1 <0>        -0.1610
      2 O1          1.1971    0.0266    1.1846 O.3       1 <0>        -0.3457
      3 O2          0.9085   -0.4980   -1.7874 O.3       1 <0>        -0.3847
      4 O3          3.5968   -1.7512    0.2538 O.3       1 <0>        -0.3864
      5 O4          2.0684    2.6694    1.0638 O.3       1 <0>        -0.3924
      6 N1         -0.7326   -1.1398    0.4217 N.pl3     1 <0>        -0.2854
      7 N2         -2.8405   -1.8808    0.3568 N.2       1 <0>        -0.2306
      8 N3         -1.1217    1.2313    0.0573 N.2       1 <0>        -0.1822
      9 N4         -3.4996    1.7158   -0.2008 N.2       1 <0>        -0.1852
     10 N5         -5.1767    0.0120   -0.0972 N.pl3     1 <0>        -0.3412
     11 C1          1.4901   -1.2997   -0.7674 C.3       1 <0>         0.1285
     12 C2          0.7203   -1.1691    0.5434 C.3       1 <0>         0.1667
     13 C3          2.8386   -0.7253   -0.3835 C.3       1 <0>         0.1135
     14 C4          2.4917    0.3566    0.6414 C.3       1 <0>         0.1126
     15 C5          2.4031    1.7514    0.0378 C.3       1 <0>         0.0730
     16 C6         -1.5208   -0.0409    0.2042 C.2       1 <0>         0.1703
     17 C7         -1.5769   -2.2199    0.5051 C.cat     1 <0>         0.1004
     18 C8         -2.8200   -0.5215    0.1680 C.2       1 <0>         0.1475
     19 C9         -3.8300    0.4115   -0.0436 C.2       1 <0>         0.1500
     20 C10        -2.1852    2.0399   -0.1415 C.2       1 <0>         0.3127
     21 H1          1.5215   -2.3382   -1.1123 H         1 <0>         0.0665
     22 H2          0.9665   -1.9997    1.2172 H         1 <0>         0.0866
     23 H3          3.4182   -0.3452   -1.2304 H         1 <0>         0.0647
     24 H4          3.1925    0.3642    1.4842 H         1 <0>         0.0647
     25 H5          1.6245    1.8131   -0.7278 H         1 <0>         0.0584
     26 H6          3.3615    2.0479   -0.3995 H         1 <0>         0.0584
     27 H7          1.4738   -0.5735   -2.5750 H         1 <0>         0.2101
     28 H8          4.4409   -1.3572    0.5331 H         1 <0>         0.2100
     29 H9         -1.2113   -3.2239    0.6729 H         1 <0>         0.1030
     30 H10         2.0219    3.5509    0.6559 H         1 <0>         0.2095
     31 H11        -5.4261   -0.9608    0.0197 H         1 <0>         0.1438
     32 H12        -5.8924    0.7089   -0.2524 H         1 <0>         0.1438
@<TRIPOS>BOND
     1    1   20 1
     2    2   12 1
     3    2   14 1
     4    3   11 1
     5    3   27 1
     6    4   13 1
     7    4   28 1
     8    5   15 1
     9    5   30 1
    10    6   12 1
    11    6   16 1
    12    6   17 2
    13    7   17 1
    14    7   18 2
    15    8   16 2
    16    8   20 1
    17    9   19 1
    18    9   20 2
    19   10   19 1
    20   10   31 1
    21   10   32 1
    22   11   12 1
    23   11   13 1
    24   11   21 1
    25   12   22 1
    26   13   14 1
    27   13   23 1
    28   14   15 1
    29   14   24 1
    30   15   25 1
    31   15   26 1
    32   16   18 1
    33   17   29 1
    34   18   19 2
