@<TRIPOS>MOLECULE
DB01288
   43    44     0     0     0
SMALL
USER_CHARGES

@<TRIPOS>ATOM
      1 O1         -2.4543   -0.2500    2.3381 O.3       1 <0>        -0.3859
      2 O2         -5.2620    2.7714   -0.7981 O.3       1 <0>        -0.5066
      3 O3         -6.6485   -1.7767   -1.2210 O.3       1 <0>        -0.5066
      4 O4          7.3449    0.6460   -1.4780 O.3       1 <0>        -0.5068
      5 N1          0.0402   -0.7262    0.9848 N.3       1 <0>        -0.3104
      6 C1          1.2448   -0.2659    0.2875 C.3       1 <0>         0.0089
      7 C2          2.4933   -0.7997    1.0129 C.3       1 <0>        -0.0125
      8 C3         -1.1555   -0.2875    0.2848 C.3       1 <0>         0.0264
      9 C4         -2.4188   -0.7686    1.0092 C.3       1 <0>         0.0928
     10 C5          1.2106    1.2613    0.2255 C.3       1 <0>        -0.0494
     11 C6          3.7917   -0.4127    0.3462 C.ar      1 <0>        -0.0457
     12 C7         -3.6735   -0.3194    0.2926 C.ar      1 <0>        -0.0111
     13 C8          4.3326   -1.2448   -0.6204 C.ar      1 <0>        -0.0551
     14 C9          4.4177    0.7677    0.7136 C.ar      1 <0>        -0.0551
     15 C10        -4.5847   -1.2697   -0.1345 C.ar      1 <0>        -0.0143
     16 C11        -3.8831    1.0321    0.0798 C.ar      1 <0>        -0.0143
     17 C12        -5.0398    1.4463   -0.5808 C.ar      1 <0>         0.1207
     18 C13        -5.7413   -0.8557   -0.7950 C.ar      1 <0>         0.1207
     19 C14         5.5321   -0.8874   -1.2361 C.ar      1 <0>        -0.0199
     20 C15         5.6172    1.1253    0.0979 C.ar      1 <0>        -0.0199
     21 C16         6.1745    0.2978   -0.8770 C.ar      1 <0>         0.1169
     22 C17        -5.9691    0.5023   -1.0182 C.ar      1 <0>         0.0213
     23 H1          1.2500   -0.6589   -0.7381 H         1 <0>         0.0461
     24 H2          2.4446   -1.8955    1.0812 H         1 <0>         0.0328
     25 H3          2.5060   -0.4469    2.0538 H         1 <0>         0.0328
     26 H4         -1.2006    0.8025    0.2697 H         1 <0>         0.0453
     27 H5         -1.1597   -0.6516   -0.7501 H         1 <0>         0.0453
     28 H6          0.0486   -1.7439    1.0475 H         1 <0>         0.1223
     29 H7         -2.4038   -1.8627    1.0900 H         1 <0>         0.0656
     30 H8          0.4361    1.6451   -0.4456 H         1 <0>         0.0245
     31 H9          2.1336    1.6691   -0.1947 H         1 <0>         0.0245
     32 H10         1.0733    1.7080    1.2168 H         1 <0>         0.0245
     33 H11         3.8385   -2.1684   -0.9082 H         1 <0>         0.0621
     34 H12         3.9980    1.4162    1.4774 H         1 <0>         0.0621
     35 H13        -4.4133   -2.3289    0.0363 H         1 <0>         0.0658
     36 H14        -3.1748    1.7757    0.4334 H         1 <0>         0.0658
     37 H15        -1.6251   -0.5114    2.7738 H         1 <0>         0.2103
     38 H16         5.9555   -1.5405   -1.9945 H         1 <0>         0.0654
     39 H17         6.1138    2.0488    0.3831 H         1 <0>         0.0654
     40 H18        -6.8686    0.8319   -1.5321 H         1 <0>         0.0691
     41 H19        -4.5187    3.2807   -0.4319 H         1 <0>         0.2921
     42 H20        -7.3858   -1.3152   -1.6564 H         1 <0>         0.2921
     43 H21         7.5831   -0.0400   -2.1251 H         1 <0>         0.2921
@<TRIPOS>BOND
     1    1    9 1
     2    1   37 1
     3    2   17 1
     4    2   41 1
     5    3   18 1
     6    3   42 1
     7    4   21 1
     8    4   43 1
     9    5    6 1
    10    5    8 1
    11    5   28 1
    12    6    7 1
    13    6   10 1
    14    6   23 1
    15    7   11 1
    16    7   24 1
    17    7   25 1
    18    8    9 1
    19    8   26 1
    20    8   27 1
    21    9   12 1
    22    9   29 1
    23   10   30 1
    24   10   31 1
    25   10   32 1
    26   11   13 ar
    27   11   14 ar
    28   12   15 ar
    29   12   16 ar
    30   13   19 ar
    31   13   33 1
    32   14   20 ar
    33   14   34 1
    34   15   18 ar
    35   15   35 1
    36   16   17 ar
    37   16   36 1
    38   17   22 ar
    39   18   22 ar
    40   19   21 ar
    41   19   38 1
    42   20   21 ar
    43   20   39 1
    44   22   40 1
