@<TRIPOS>MOLECULE
DB01098
   61    62     0     0     0
SMALL
USER_CHARGES

@<TRIPOS>ATOM
      1 S1         -4.0936    3.0907    0.6666 S.o2      1 <0>         0.0446
      2 F1          4.1214    3.2932   -1.9982 F         1 <0>        -0.2055
      3 O1          2.2306   -3.7543   -0.5518 O.3       1 <0>        -0.3877
      4 O2          4.0985   -1.2344    2.3008 O.3       1 <0>        -0.3912
      5 O3         -5.0065    4.1369    0.2438 O.2       1 <0>        -0.1552
      6 O4         -2.7339    3.4217    1.0495 O.2       1 <0>        -0.1552
      7 O5          5.8999    2.3820    0.5187 O.3       1 <0>        -0.4806
      8 O6          4.6368    1.7421    2.2942 O.2       1 <0>        -0.2509
      9 N1         -3.1519   -0.3327   -0.3097 N.ar      1 <0>        -0.2172
     10 N2         -4.0828    1.8257   -0.5095 N.pl3     1 <0>        -0.1777
     11 N3         -1.7594    1.5655   -0.8245 N.ar      1 <0>        -0.2125
     12 C1         -2.2782   -2.5608   -0.0903 C.3       1 <0>        -0.0035
     13 C2         -2.0490   -1.1080   -0.3577 C.ar      1 <0>         0.0566
     14 C3          3.6588   -1.8766    0.0158 C.3       1 <0>         0.0034
     15 C4         -0.7845   -0.6265   -0.6294 C.ar      1 <0>         0.0224
     16 C5          2.3979   -2.6836    0.3720 C.3       1 <0>         0.0760
     17 C6          3.9389   -0.7158    0.9826 C.3       1 <0>         0.0679
     18 C7         -0.6989    0.7318   -0.8567 C.ar      1 <0>         0.0835
     19 C8          0.3908   -1.5136   -0.6688 C.2       1 <0>        -0.0523
     20 C9          1.1840   -1.7840    0.3809 C.2       1 <0>        -0.0551
     21 C10        -3.2033   -3.2095   -1.1352 C.3       1 <0>        -0.0572
     22 C11        -2.8243   -2.8163    1.3259 C.3       1 <0>        -0.0572
     23 C12         5.1701    0.1064    0.5953 C.3       1 <0>         0.0708
     24 C13        -2.9381    0.9752   -0.5493 C.ar      1 <0>         0.2377
     25 C14         0.5526    1.3962   -1.1526 C.ar      1 <0>         0.0013
     26 C15        -5.3966    1.2310   -0.8904 C.3       1 <0>         0.0261
     27 C16         1.0213    2.4067   -0.3131 C.ar      1 <0>        -0.0498
     28 C17         1.2895    1.0265   -2.2779 C.ar      1 <0>        -0.0498
     29 C18         5.2000    1.4725    1.2410 C.2       1 <0>         0.3072
     30 C19        -4.8538    2.2737    2.0543 C.3       1 <0>         0.0739
     31 C20         2.2268    3.0475   -0.5987 C.ar      1 <0>        -0.0258
     32 C21         2.4949    1.6674   -2.5636 C.ar      1 <0>        -0.0258
     33 C22         2.9637    2.6778   -1.7240 C.ar      1 <0>         0.1234
     34 H1         -1.3439   -3.1286   -0.1472 H         1 <0>         0.0359
     35 H2          3.5790   -1.5009   -1.0129 H         1 <0>         0.0318
     36 H3          4.5120   -2.5679    0.0171 H         1 <0>         0.0318
     37 H4          2.5096   -3.1387    1.3627 H         1 <0>         0.0638
     38 H5          3.0709   -0.0472    1.0044 H         1 <0>         0.0599
     39 H6          0.5878   -1.9698   -1.6355 H         1 <0>         0.0622
     40 H7          0.9629   -1.3064    1.3343 H         1 <0>         0.0598
     41 H8         -2.8015   -3.0756   -2.1457 H         1 <0>         0.0236
     42 H9         -3.3034   -4.2846   -0.9511 H         1 <0>         0.0236
     43 H10        -4.2064   -2.7691   -1.1129 H         1 <0>         0.0236
     44 H11        -2.9238   -3.8904    1.5157 H         1 <0>         0.0236
     45 H12        -2.1497   -2.4005    2.0825 H         1 <0>         0.0236
     46 H13        -3.8090   -2.3566    1.4664 H         1 <0>         0.0236
     47 H14         5.1689    0.2618   -0.4900 H         1 <0>         0.0403
     48 H15         6.0918   -0.4126    0.8794 H         1 <0>         0.0403
     49 H16         1.4375   -4.2518   -0.2879 H         1 <0>         0.2102
     50 H17         4.2317   -0.4811    2.9009 H         1 <0>         0.2098
     51 H18        -6.1552    2.0134   -0.9847 H         1 <0>         0.0447
     52 H19        -5.7257    0.4967   -0.1496 H         1 <0>         0.0447
     53 H20        -5.3128    0.7432   -1.8673 H         1 <0>         0.0447
     54 H21         0.4637    2.7052    0.5716 H         1 <0>         0.0625
     55 H22         0.9365    0.2556   -2.9587 H         1 <0>         0.0625
     56 H23        -4.8572    2.9744    2.8926 H         1 <0>         0.0482
     57 H24        -5.8801    2.0037    1.8018 H         1 <0>         0.0482
     58 H25        -4.2649    1.3927    2.3157 H         1 <0>         0.0482
     59 H26         2.5938    3.8324    0.0560 H         1 <0>         0.0646
     60 H27         3.0674    1.3824   -3.4413 H         1 <0>         0.0646
     61 H28         5.8986    3.2662    0.9435 H         1 <0>         0.2951
@<TRIPOS>BOND
     1    1    5 2
     2    1    6 2
     3    1   10 1
     4    1   30 1
     5    2   33 1
     6    3   16 1
     7    3   49 1
     8    4   17 1
     9    4   50 1
    10    7   29 1
    11    7   61 1
    12    8   29 2
    13    9   13 ar
    14    9   24 ar
    15   10   24 1
    16   10   26 1
    17   11   18 ar
    18   11   24 ar
    19   12   13 1
    20   12   21 1
    21   12   22 1
    22   12   34 1
    23   13   15 ar
    24   14   16 1
    25   14   17 1
    26   14   35 1
    27   14   36 1
    28   15   18 ar
    29   15   19 1
    30   16   20 1
    31   16   37 1
    32   17   23 1
    33   17   38 1
    34   18   25 1
    35   19   20 2
    36   19   39 1
    37   20   40 1
    38   21   41 1
    39   21   42 1
    40   21   43 1
    41   22   44 1
    42   22   45 1
    43   22   46 1
    44   23   29 1
    45   23   47 1
    46   23   48 1
    47   25   27 ar
    48   25   28 ar
    49   26   51 1
    50   26   52 1
    51   26   53 1
    52   27   31 ar
    53   27   54 1
    54   28   32 ar
    55   28   55 1
    56   30   56 1
    57   30   57 1
    58   30   58 1
    59   31   33 ar
    60   31   59 1
    61   32   33 ar
    62   32   60 1
