@<TRIPOS>MOLECULE
DB01092
   85    90     0     0     0
SMALL
USER_CHARGES

@<TRIPOS>ATOM
      1 O1         -4.3133    1.7595    0.0764 O.3       1 <0>        -0.3877
      2 O2          1.9488    1.4536    1.6780 O.3       1 <0>        -0.3878
      3 O3         -1.1983   -2.8823    0.4960 O.3       1 <0>        -0.3915
      4 O4          2.3567   -1.2220    1.9301 O.3       1 <0>        -0.3910
      5 O5          1.0612    0.0259    3.4722 O.3       1 <0>        -0.3943
      6 O6          3.6057    0.1112   -0.1928 O.3       1 <0>        -0.3452
      7 O7         -8.7520    0.2410   -0.2516 O.3       1 <0>        -0.4571
      8 O8          5.2847   -0.0465   -1.8622 O.3       1 <0>        -0.3431
      9 O9         -8.8627    2.4673   -0.8233 O.2       1 <0>        -0.2456
     10 O10         6.1196    2.5851   -1.0634 O.3       1 <0>        -0.3841
     11 O11         7.3461    1.7128    1.2773 O.3       1 <0>        -0.3864
     12 O12         7.9327   -0.9778    0.5272 O.3       1 <0>        -0.3866
     13 C1         -1.1760   -0.4295    0.4269 C.3       1 <0>         0.0032
     14 C2         -2.1272    0.8124    0.5193 C.3       1 <0>        -0.0056
     15 C3         -3.4605    0.6552   -0.2652 C.3       1 <0>         0.0752
     16 C4         -4.2154   -0.6595    0.0520 C.3       1 <0>         0.0059
     17 C5          0.1778   -0.2110    1.2648 C.3       1 <0>         0.0540
     18 C6          0.8542    1.1396    0.8024 C.3       1 <0>         0.0788
     19 C7         -1.9709   -1.7181    0.7767 C.3       1 <0>         0.0598
     20 C8         -3.2501   -1.8607   -0.0528 C.3       1 <0>        -0.0180
     21 C9         -5.2593   -0.7533   -1.1071 C.3       1 <0>        -0.0080
     22 C10        -1.4079    2.1167    0.1301 C.3       1 <0>        -0.0446
     23 C11        -3.3181    0.6238   -1.7979 C.3       1 <0>        -0.0226
     24 C12        -0.1165    2.3254    0.9019 C.3       1 <0>        -0.0229
     25 C13         1.2240   -1.3704    1.0644 C.3       1 <0>         0.0683
     26 C14        -4.5386   -0.1434   -2.3259 C.3       1 <0>        -0.0432
     27 C15         1.4266    1.0390   -0.6388 C.3       1 <0>         0.0032
     28 C16        -0.1526   -0.1547    2.7854 C.3       1 <0>         0.0552
     29 C17        -4.8733   -0.6693    1.4466 C.3       1 <0>        -0.0563
     30 C18         1.7590   -1.4595   -0.3690 C.3       1 <0>         0.0004
     31 C19         2.3701   -0.1449   -0.8551 C.3       1 <0>         0.0668
     32 C20        -6.5691   -0.0566   -0.8743 C.2       1 <0>        -0.0222
     33 C21        -7.7343   -0.7644   -0.3059 C.3       1 <0>         0.1147
     34 C22        -6.8572    1.2171   -1.1289 C.2       1 <0>         0.0252
     35 C23         4.5071    0.8236   -1.0328 C.3       1 <0>         0.1881
     36 C24        -8.2523    1.4161   -0.7337 C.2       1 <0>         0.3323
     37 C25         5.4151    1.7096   -0.1817 C.3       1 <0>         0.1341
     38 C26         6.4084    0.8649    0.6180 C.3       1 <0>         0.1140
     39 C27         6.1667   -0.9120   -1.1404 C.3       1 <0>         0.0873
     40 C28         7.1609   -0.1048   -0.2940 C.3       1 <0>         0.1095
     41 C29         6.8727   -1.7890   -2.1707 C.3       1 <0>        -0.0361
     42 H1         -0.8756   -0.5349   -0.6219 H         1 <0>         0.0337
     43 H2         -2.4055    0.9300    1.5752 H         1 <0>         0.0332
     44 H3         -2.2205   -1.7373    1.8409 H         1 <0>         0.0596
     45 H4         -2.9608   -2.0450   -1.0964 H         1 <0>         0.0296
     46 H5         -3.7716   -2.7817    0.2441 H         1 <0>         0.0296
     47 H6         -5.4908   -1.8031   -1.3329 H         1 <0>         0.0353
     48 H7         -2.0630    2.9754    0.3208 H         1 <0>         0.0270
     49 H8         -1.1999    2.1308   -0.9450 H         1 <0>         0.0270
     50 H9         -2.4063    0.1119   -2.1215 H         1 <0>         0.0293
     51 H10        -3.3014    1.6335   -2.2233 H         1 <0>         0.0293
     52 H11         0.3770    3.2377    0.5406 H         1 <0>         0.0293
     53 H12        -0.3459    2.5412    1.9529 H         1 <0>         0.0293
     54 H13         0.7920   -2.3286    1.3555 H         1 <0>         0.0601
     55 H14        -5.1621    0.4847   -2.9707 H         1 <0>         0.0272
     56 H15        -4.1816   -0.9534   -2.9755 H         1 <0>         0.0272
     57 H16         1.9564    1.9731   -0.8625 H         1 <0>         0.0318
     58 H17         0.6153    0.9546   -1.3691 H         1 <0>         0.0318
     59 H18        -0.6110   -1.0814    3.1436 H         1 <0>         0.0564
     60 H19        -0.8182    0.6685    3.0509 H         1 <0>         0.0564
     61 H20        -5.3996   -1.6146    1.6205 H         1 <0>         0.0236
     62 H21        -4.1300   -0.5637    2.2430 H         1 <0>         0.0236
     63 H22        -5.5932    0.1419    1.5900 H         1 <0>         0.0236
     64 H23         0.9537   -1.7605   -1.0474 H         1 <0>         0.0315
     65 H24         2.5306   -2.2385   -0.4150 H         1 <0>         0.0315
     66 H25         2.5554   -0.2652   -1.9315 H         1 <0>         0.0599
     67 H26        -4.3085    1.8675    1.0421 H         1 <0>         0.2102
     68 H27         2.6179    0.7540    1.6025 H         1 <0>         0.2102
     69 H28        -1.7053   -3.6551    0.7983 H         1 <0>         0.2098
     70 H29         2.9355   -1.9918    1.7965 H         1 <0>         0.2098
     71 H30        -8.0771   -1.5784   -0.9513 H         1 <0>         0.0746
     72 H31        -7.5627   -1.1432    0.7040 H         1 <0>         0.0746
     73 H32         1.4565   -0.8493    3.6224 H         1 <0>         0.2094
     74 H33        -6.2435    1.9930   -1.5519 H         1 <0>         0.0689
     75 H34         3.9617    1.4810   -1.7215 H         1 <0>         0.0937
     76 H35         4.8255    2.3340    0.4993 H         1 <0>         0.0671
     77 H36         5.8777    0.3081    1.4005 H         1 <0>         0.0648
     78 H37         5.5719   -1.5747   -0.4982 H         1 <0>         0.0621
     79 H38         7.8565    0.4580   -0.9290 H         1 <0>         0.0646
     80 H39         6.7235    3.1191   -0.5197 H         1 <0>         0.2101
     81 H40         7.5078   -2.5430   -1.6975 H         1 <0>         0.0255
     82 H41         6.1372   -2.3049   -2.7978 H         1 <0>         0.0255
     83 H42         7.4880   -1.1821   -2.8441 H         1 <0>         0.0255
     84 H43         7.9709    1.1404    1.7545 H         1 <0>         0.2100
     85 H44         8.5306   -1.4786   -0.0526 H         1 <0>         0.2100
@<TRIPOS>BOND
     1    1   15 1
     2    1   67 1
     3    2   18 1
     4    2   68 1
     5    3   19 1
     6    3   69 1
     7    4   25 1
     8    4   70 1
     9    5   28 1
    10    5   73 1
    11    6   31 1
    12    6   35 1
    13    7   33 1
    14    7   36 1
    15    8   35 1
    16    8   39 1
    17    9   36 2
    18   10   37 1
    19   10   80 1
    20   11   38 1
    21   11   84 1
    22   12   40 1
    23   12   85 1
    24   13   14 1
    25   13   17 1
    26   13   19 1
    27   13   42 1
    28   14   15 1
    29   14   22 1
    30   14   43 1
    31   15   16 1
    32   15   23 1
    33   16   20 1
    34   16   21 1
    35   16   29 1
    36   17   18 1
    37   17   25 1
    38   17   28 1
    39   18   24 1
    40   18   27 1
    41   19   20 1
    42   19   44 1
    43   20   45 1
    44   20   46 1
    45   21   26 1
    46   21   32 1
    47   21   47 1
    48   22   24 1
    49   22   48 1
    50   22   49 1
    51   23   26 1
    52   23   50 1
    53   23   51 1
    54   24   52 1
    55   24   53 1
    56   25   30 1
    57   25   54 1
    58   26   55 1
    59   26   56 1
    60   27   31 1
    61   27   57 1
    62   27   58 1
    63   28   59 1
    64   28   60 1
    65   29   61 1
    66   29   62 1
    67   29   63 1
    68   30   31 1
    69   30   64 1
    70   30   65 1
    71   31   66 1
    72   32   33 1
    73   32   34 2
    74   33   71 1
    75   33   72 1
    76   34   36 1
    77   34   74 1
    78   35   37 1
    79   35   75 1
    80   37   38 1
    81   37   76 1
    82   38   40 1
    83   38   77 1
    84   39   40 1
    85   39   41 1
    86   39   78 1
    87   40   79 1
    88   41   81 1
    89   41   82 1
    90   41   83 1
