@<TRIPOS>MOLECULE
DB01416
   45    47     0     0     0
SMALL
USER_CHARGES

@<TRIPOS>ATOM
      1 S1         -0.9317   -0.9014    1.6518 S.3       1 <0>        -0.1311
      2 S2          3.3391    3.6434   -0.6379 S.3       1 <0>        -0.0604
      3 O1         -0.2937   -0.6188   -2.9445 O.2       1 <0>        -0.2731
      4 O2         -5.5314   -0.1097    1.1239 O.3       1 <0>        -0.3786
      5 O3         -4.0228   -0.1808   -2.6523 O.3       1 <0>        -0.4763
      6 O4         -2.7678    1.7084   -2.3586 O.2       1 <0>        -0.2437
      7 O5          2.7577   -1.2562   -2.2055 O.2       1 <0>        -0.2683
      8 O6          4.3500   -2.3281    0.2374 O.3       1 <0>        -0.3964
      9 N1         -1.5139   -0.8286   -0.9376 N.am      1 <0>        -0.2489
     10 N2          1.4571   -1.1822   -0.2529 N.am      1 <0>        -0.2963
     11 N3          4.5784   -0.9495    0.3493 N.2       1 <0>        -0.0779
     12 N4          4.8025    1.7935    0.4198 N.2       1 <0>        -0.2233
     13 N5          5.5138    4.0072    0.8488 N.pl3     1 <0>        -0.3375
     14 C1         -1.0427   -1.7639    0.0674 C.3       1 <0>         0.1042
     15 C2          0.2584   -1.8492   -0.7604 C.3       1 <0>         0.1286
     16 C3         -0.5126   -1.0171   -1.8244 C.2       1 <0>         0.2440
     17 C4         -2.6471   -0.0913   -0.8103 C.2       1 <0>         0.1242
     18 C5         -3.2700    0.0477    0.3842 C.2       1 <0>        -0.0060
     19 C6         -2.7143   -0.5128    1.6916 C.3       1 <0>         0.0210
     20 C7         -4.5738    0.7805    0.5909 C.3       1 <0>         0.0714
     21 C8         -3.1306    0.6017   -2.0137 C.2       1 <0>         0.3514
     22 C9          2.5767   -0.9598   -1.0355 C.2       1 <0>         0.2684
     23 C10         3.6847   -0.2591   -0.2926 C.2       1 <0>         0.1897
     24 C11         3.7797    1.2041   -0.2676 C.2       1 <0>         0.1067
     25 C12        -6.7865    0.5281    1.3411 C.3       1 <0>         0.0369
     26 C13         2.8860    2.0110   -0.9048 C.2       1 <0>         0.0067
     27 C14         4.6717    3.0955    0.2941 C.2       1 <0>         0.1562
     28 C15         5.3655   -3.0034    0.9632 C.3       1 <0>         0.1072
     29 H1         -1.6192   -2.6964    0.0861 H         1 <0>         0.0644
     30 H2          0.4848   -2.8672   -1.0991 H         1 <0>         0.0622
     31 H3         -3.2647   -1.4192    1.9663 H         1 <0>         0.0424
     32 H4         -2.8489    0.2179    2.4963 H         1 <0>         0.0424
     33 H5          1.4849   -0.8664    0.7138 H         1 <0>         0.1499
     34 H6         -4.4121    1.6144    1.2855 H         1 <0>         0.0607
     35 H7         -4.9586    1.2035   -0.3428 H         1 <0>         0.0607
     36 H8         -4.3732    0.2449   -3.4636 H         1 <0>         0.2954
     37 H9         -7.4778   -0.2085    1.7592 H         1 <0>         0.0524
     38 H10        -7.1968    0.8965    0.3960 H         1 <0>         0.0524
     39 H11        -6.6788    1.3516    2.0535 H         1 <0>         0.0524
     40 H12         2.0161    1.7622   -1.4961 H         1 <0>         0.0716
     41 H13         6.3132    3.7260    1.4070 H         1 <0>         0.1442
     42 H14         5.3764    5.0051    0.7273 H         1 <0>         0.1442
     43 H15         5.3289   -2.7223    2.0202 H         1 <0>         0.0687
     44 H16         5.1933   -4.0797    0.8801 H         1 <0>         0.0687
     45 H17         6.3501   -2.7718    0.5453 H         1 <0>         0.0687
@<TRIPOS>BOND
     1    1   14 1
     2    1   19 1
     3    2   26 1
     4    2   27 1
     5    3   16 2
     6    4   20 1
     7    4   25 1
     8    5   21 1
     9    5   36 1
    10    6   21 2
    11    7   22 2
    12    8   11 1
    13    8   28 1
    14    9   14 1
    15    9   16 am
    16    9   17 1
    17   10   15 1
    18   10   22 am
    19   10   33 1
    20   11   23 2
    21   12   24 1
    22   12   27 2
    23   13   27 1
    24   13   41 1
    25   13   42 1
    26   14   15 1
    27   14   29 1
    28   15   16 1
    29   15   30 1
    30   17   18 2
    31   17   21 1
    32   18   19 1
    33   18   20 1
    34   19   31 1
    35   19   32 1
    36   20   34 1
    37   20   35 1
    38   22   23 1
    39   23   24 1
    40   24   26 2
    41   25   37 1
    42   25   38 1
    43   25   39 1
    44   26   40 1
    45   28   43 1
    46   28   44 1
    47   28   45 1
