@<TRIPOS>MOLECULE
DB01440
   15    14     0     0     0
SMALL
USER_CHARGES

@<TRIPOS>ATOM
      1 O1         -2.9538   -0.3972   -0.2295 O.3       1 <0>        -0.3950
      2 O2          3.0772    0.4542    0.1134 O.3       1 <0>        -0.4806
      3 O3          2.0237   -1.5438   -0.1222 O.2       1 <0>        -0.2510
      4 C1         -0.5442   -0.3686   -0.1308 C.3       1 <0>        -0.0197
      5 C2          0.7061    0.4979    0.0299 C.3       1 <0>         0.0468
      6 C3         -1.8269    0.4501   -0.0573 C.3       1 <0>         0.0447
      7 C4          1.9720   -0.3274   -0.0054 C.2       1 <0>         0.3048
      8 H1         -0.5105   -0.9089   -1.0856 H         1 <0>         0.0292
      9 H2         -0.5659   -1.1475    0.6424 H         1 <0>         0.0292
     10 H3          0.6709    1.0250    0.9896 H         1 <0>         0.0378
     11 H4          0.7528    1.2328   -0.7813 H         1 <0>         0.0378
     12 H5         -1.8497    1.2070   -0.8473 H         1 <0>         0.0557
     13 H6         -1.9190    0.9589    0.9076 H         1 <0>         0.0557
     14 H7         -2.9357   -1.0576    0.4838 H         1 <0>         0.2094
     15 H8          3.9029   -0.0749    0.0928 H         1 <0>         0.2951
@<TRIPOS>BOND
     1    1    6 1
     2    1   14 1
     3    2    7 1
     4    2   15 1
     5    3    7 2
     6    4    5 1
     7    4    6 1
     8    4    8 1
     9    4    9 1
    10    5    7 1
    11    5   10 1
    12    5   11 1
    13    6   12 1
    14    6   13 1
