@<TRIPOS>MOLECULE
DB01589
   36    38     0     0     0
SMALL
USER_CHARGES

@<TRIPOS>ATOM
      1 Cl1         0.2069   -4.5719    1.3725 Cl        1 <0>        -0.0835
      2 S1         -2.3293    3.5529    0.5699 S.2       1 <0>        -0.0379
      3 F1         -3.7667    0.8379   -3.0739 F         1 <0>        -0.1689
      4 F2         -1.9894    1.9376   -2.4523 F         1 <0>        -0.1689
      5 F3         -1.9757   -0.2482   -2.4682 F         1 <0>        -0.1689
      6 F4          3.1224    1.8796    1.6547 F         1 <0>        -0.2048
      7 N1         -2.1304    0.8215    0.1883 N.pl3     1 <0>        -0.2869
      8 N2          0.5498    1.6585    1.3682 N.2       1 <0>        -0.2761
      9 C1         -1.5228   -0.4622    0.4553 C.ar      1 <0>         0.0438
     10 C2         -0.1612   -0.6176    0.7878 C.ar      1 <0>         0.0233
     11 C3          0.7964    0.5259    0.8012 C.2       1 <0>         0.0777
     12 C4         -3.2383    0.8244   -0.7834 C.3       1 <0>         0.1127
     13 C5         -1.7488    1.9925    0.8671 C.2       1 <0>         0.0774
     14 C6         -0.7484    1.8245    1.9999 C.3       1 <0>         0.0854
     15 C7         -2.3092   -1.6292    0.3733 C.ar      1 <0>        -0.0383
     16 C8          0.3623   -1.8892    1.0843 C.ar      1 <0>        -0.0324
     17 C9          2.1132    0.3751    0.1176 C.ar      1 <0>         0.0357
     18 C10        -2.7325    0.8381   -2.2039 C.3       1 <0>         0.4056
     19 C11        -1.7780   -2.8914    0.6511 C.ar      1 <0>        -0.0416
     20 C12        -0.4449   -3.0204    1.0155 C.ar      1 <0>         0.0417
     21 C13         3.2201    1.0709    0.5897 C.ar      1 <0>         0.1325
     22 C14         2.2195   -0.4622   -0.9868 C.ar      1 <0>        -0.0498
     23 C15         4.4504    0.9270   -0.0516 C.ar      1 <0>        -0.0258
     24 C16         3.4499   -0.6060   -1.6280 C.ar      1 <0>        -0.0610
     25 C17         4.5653    0.0887   -1.1604 C.ar      1 <0>        -0.0590
     26 H1         -3.9435    0.0084   -0.6301 H         1 <0>         0.0557
     27 H2         -3.8615    1.7118   -0.6408 H         1 <0>         0.0557
     28 H3         -1.0163    0.9895    2.6580 H         1 <0>         0.0576
     29 H4         -0.7130    2.7121    2.6414 H         1 <0>         0.0576
     30 H5         -3.3705   -1.6162    0.1551 H         1 <0>         0.0637
     31 H6          1.4049   -2.0006    1.3764 H         1 <0>         0.0639
     32 H7         -2.4262   -3.7623    0.5942 H         1 <0>         0.0633
     33 H8          1.3656   -0.9929   -1.3979 H         1 <0>         0.0625
     34 H9          5.3188    1.4682    0.3125 H         1 <0>         0.0646
     35 H10         3.5380   -1.2530   -2.4959 H         1 <0>         0.0618
     36 H11         5.5229   -0.0219   -1.6607 H         1 <0>         0.0618
@<TRIPOS>BOND
     1    1   20 1
     2    2   13 2
     3    3   18 1
     4    4   18 1
     5    5   18 1
     6    6   21 1
     7    7    9 1
     8    7   12 1
     9    7   13 1
    10    8   11 2
    11    8   14 1
    12    9   10 ar
    13    9   15 ar
    14   10   11 1
    15   10   16 ar
    16   11   17 1
    17   12   18 1
    18   12   26 1
    19   12   27 1
    20   13   14 1
    21   14   28 1
    22   14   29 1
    23   15   19 ar
    24   15   30 1
    25   16   20 ar
    26   16   31 1
    27   17   21 ar
    28   17   22 ar
    29   19   20 ar
    30   19   32 1
    31   21   23 ar
    32   22   24 ar
    33   22   33 1
    34   23   25 ar
    35   23   34 1
    36   24   25 ar
    37   24   35 1
    38   25   36 1
