@<TRIPOS>MOLECULE
DB01056
   30    30     0     0     0
SMALL
USER_CHARGES

@<TRIPOS>ATOM
      1 O1          1.1838   -0.2869    1.7936 O.2       1 <0>        -0.2738
      2 N1          0.3324   -0.1150   -0.3870 N.am      1 <0>        -0.2838
      3 N2          3.5420   -1.1419    0.8139 N.3       1 <0>        -0.3202
      4 C1         -1.0632   -0.0148   -0.1754 C.ar      1 <0>         0.0393
      5 C2         -1.6391    1.2360   -0.0096 C.ar      1 <0>        -0.0290
      6 C3         -1.8315   -1.1689   -0.1374 C.ar      1 <0>        -0.0290
      7 C4          2.7136   -0.3224   -0.0672 C.3       1 <0>         0.0798
      8 C5          1.3305   -0.2459    0.5753 C.2       1 <0>         0.2338
      9 C6         -3.0147    1.3348    0.1989 C.ar      1 <0>        -0.0571
     10 C7         -3.2071   -1.0701    0.0709 C.ar      1 <0>        -0.0571
     11 C8         -0.8263    2.4895   -0.0477 C.3       1 <0>        -0.0379
     12 C9         -1.2271   -2.5242   -0.3139 C.3       1 <0>        -0.0379
     13 C10        -3.7988    0.1818    0.2391 C.ar      1 <0>        -0.0611
     14 C11         3.3426    1.0574   -0.2217 C.3       1 <0>        -0.0413
     15 H1          2.6465   -0.8114   -1.0456 H         1 <0>         0.0551
     16 H2          0.6198    0.0384   -1.3510 H         1 <0>         0.1549
     17 H3         -3.4923    2.3019    0.3327 H         1 <0>         0.0621
     18 H4         -3.8329   -1.9579    0.1062 H         1 <0>         0.0621
     19 H5         -0.1267    2.5166    0.7942 H         1 <0>         0.0278
     20 H6         -0.2657    2.5571   -0.9862 H         1 <0>         0.0278
     21 H7         -1.4541    3.3849    0.0174 H         1 <0>         0.0278
     22 H8         -1.9899   -3.3098   -0.3468 H         1 <0>         0.0278
     23 H9         -0.6693   -2.5781   -1.2547 H         1 <0>         0.0278
     24 H10        -0.5546   -2.7532    0.5192 H         1 <0>         0.0278
     25 H11        -4.8699    0.2588    0.4018 H         1 <0>         0.0618
     26 H12         3.4216    1.5730    0.7425 H         1 <0>         0.0249
     27 H13         4.3442    0.9910   -0.6594 H         1 <0>         0.0249
     28 H14         2.7294    1.6873   -0.8756 H         1 <0>         0.0249
     29 H15         4.4832   -1.2160    0.4291 H         1 <0>         0.1189
     30 H16         3.1735   -2.0921    0.8445 H         1 <0>         0.1189
@<TRIPOS>BOND
     1    1    8 2
     2    2    4 1
     3    2    8 am
     4    2   16 1
     5    3    7 1
     6    3   29 1
     7    3   30 1
     8    4    5 ar
     9    4    6 ar
    10    5    9 ar
    11    5   11 1
    12    6   10 ar
    13    6   12 1
    14    7    8 1
    15    7   14 1
    16    7   15 1
    17    9   13 ar
    18    9   17 1
    19   10   13 ar
    20   10   18 1
    21   11   19 1
    22   11   20 1
    23   11   21 1
    24   12   22 1
    25   12   23 1
    26   12   24 1
    27   13   25 1
    28   14   26 1
    29   14   27 1
    30   14   28 1
