@<TRIPOS>MOLECULE
DB01698
   73    77     0     0     0
SMALL
USER_CHARGES

@<TRIPOS>ATOM
      1 O1         -1.1489    0.2859   -1.5641 O.3       1 <0>        -0.3313
      2 O2         -0.5821    2.4688    0.0674 O.3       1 <0>        -0.3461
      3 O3          1.6991    2.9981    0.4517 O.3       1 <0>        -0.3431
      4 O4         -3.0889    3.3174   -2.2423 O.3       1 <0>        -0.3865
      5 O5         -5.1195    1.3136   -1.7768 O.3       1 <0>        -0.3864
      6 O6         -1.6513   -1.9856   -1.7426 O.3       1 <0>        -0.4532
      7 O7         -4.2128   -1.3178   -2.7433 O.3       1 <0>        -0.3829
      8 O8          0.8463    4.2417    2.8985 O.3       1 <0>        -0.3841
      9 O9          0.4325    1.8301    4.2244 O.3       1 <0>        -0.3864
     10 O10         2.2316    0.1707    2.7562 O.3       1 <0>        -0.3866
     11 O11         1.3152   -2.4549    0.3945 O.3       1 <0>        -0.4507
     12 O12         0.4691   -1.4933   -3.4738 O.2       1 <0>        -0.2830
     13 O13         3.0247   -1.2908   -3.9885 O.3       1 <0>        -0.5058
     14 O14         5.9875   -2.1158   -0.3712 O.3       1 <0>        -0.5065
     15 O15        -2.9009   -0.9174    3.5460 O.3       1 <0>        -0.5033
     16 O16        -3.7858   -3.5233    3.9303 O.3       1 <0>        -0.5033
     17 C1         -1.3935    1.6164   -2.0233 C.3       1 <0>         0.1144
     18 C2         -2.8345    2.0221   -1.7051 C.3       1 <0>         0.1120
     19 C3         -3.8244    1.0230   -2.3045 C.3       1 <0>         0.1152
     20 C4         -3.4418   -0.4144   -1.9517 C.3       1 <0>         0.1454
     21 C5          0.0891    3.2090    2.2652 C.3       1 <0>         0.1341
     22 C6          0.3357    3.3071    0.7609 C.3       1 <0>         0.1879
     23 C7          0.5202    1.8428    2.8014 C.3       1 <0>         0.1140
     24 C8          1.9545    1.5180    2.3823 C.3       1 <0>         0.1095
     25 C9         -1.9617   -0.6795   -2.2274 C.3       1 <0>         0.2311
     26 C10        -0.3845    2.5323   -1.3378 C.3       1 <0>         0.0796
     27 C11         2.1130    1.6921    0.8655 C.3       1 <0>         0.0873
     28 C12         3.5624    1.5215    0.4187 C.3       1 <0>        -0.0361
     29 C13        -0.3409   -2.0733   -1.3254 C.2       1 <0>         0.2138
     30 C14         0.0095   -2.3905   -0.0657 C.2       1 <0>         0.1810
     31 C15         0.7265   -1.7856   -2.3137 C.2       1 <0>         0.2382
     32 C16         2.1106   -1.8691   -1.8227 C.ar      1 <0>         0.1092
     33 C17        -0.9844   -2.6840    0.9824 C.ar      1 <0>         0.0247
     34 C18         2.3329   -2.2006   -0.4881 C.ar      1 <0>         0.1465
     35 C19         3.1877   -1.6188   -2.6766 C.ar      1 <0>         0.1348
     36 C20         3.6363   -2.2838    0.0024 C.ar      1 <0>         0.0231
     37 C21        -1.4821   -1.6537    1.7804 C.ar      1 <0>        -0.0057
     38 C22        -1.4279   -3.9923    1.1767 C.ar      1 <0>        -0.0473
     39 C23         4.4904   -1.7032   -2.1838 C.ar      1 <0>         0.0223
     40 C24         4.7146   -2.0350   -0.8471 C.ar      1 <0>         0.1239
     41 C25        -2.4231   -1.9315    2.7720 C.ar      1 <0>         0.1589
     42 C26        -2.3686   -4.2701    2.1684 C.ar      1 <0>        -0.0159
     43 C27        -2.8664   -3.2396    2.9660 C.ar      1 <0>         0.1583
     44 H1         -1.2075    1.6649   -3.1045 H         1 <0>         0.0647
     45 H2         -3.0011    2.0788   -0.6226 H         1 <0>         0.0647
     46 H3         -3.8981    1.1468   -3.3919 H         1 <0>         0.0648
     47 H4         -3.6837   -0.6256   -0.9032 H         1 <0>         0.0683
     48 H5         -0.9647    3.3829    2.5084 H         1 <0>         0.0671
     49 H6          0.1712    4.3444    0.4436 H         1 <0>         0.0937
     50 H7         -0.1594    1.0688    2.4405 H         1 <0>         0.0648
     51 H8          2.6553    2.1606    2.9290 H         1 <0>         0.0646
     52 H9         -1.7762   -0.6586   -3.3089 H         1 <0>         0.1084
     53 H10         0.6239    2.1850   -1.5892 H         1 <0>         0.0587
     54 H11        -0.4993    3.5647   -1.6869 H         1 <0>         0.0587
     55 H12         1.5177    0.9351    0.3392 H         1 <0>         0.0621
     56 H13         3.6394    1.6387   -0.6680 H         1 <0>         0.0255
     57 H14         3.9665    0.5447    0.6893 H         1 <0>         0.0255
     58 H15         4.1985    2.2955    0.8623 H         1 <0>         0.0255
     59 H16        -2.9474    3.2771   -3.2036 H         1 <0>         0.2100
     60 H17        -5.3269    2.2358   -2.0058 H         1 <0>         0.2100
     61 H18        -4.0156   -1.1430   -3.6793 H         1 <0>         0.2102
     62 H19         1.7608    4.1953    2.5722 H         1 <0>         0.2101
     63 H20         0.9954    2.5474    4.5628 H         1 <0>         0.2100
     64 H21         3.1853    0.0209    2.6462 H         1 <0>         0.2100
     65 H22         3.8133   -2.5401    1.0440 H         1 <0>         0.0691
     66 H23        -1.1565   -0.6320    1.6173 H         1 <0>         0.0662
     67 H24        -1.0491   -4.8061    0.5629 H         1 <0>         0.0626
     68 H25         5.3359   -1.5101   -2.8401 H         1 <0>         0.0691
     69 H26        -2.7100   -5.2914    2.3145 H         1 <0>         0.0655
     70 H27         3.8955   -1.1582   -4.4006 H         1 <0>         0.2922
     71 H28         6.6078   -1.9123   -1.0921 H         1 <0>         0.2921
     72 H29        -3.7594   -1.1695    3.9224 H         1 <0>         0.2923
     73 H30        -3.7767   -2.8268    4.6063 H         1 <0>         0.2923
@<TRIPOS>BOND
     1    1   17 1
     2    1   25 1
     3    2   22 1
     4    2   26 1
     5    3   22 1
     6    3   27 1
     7    4   18 1
     8    4   59 1
     9    5   19 1
    10    5   60 1
    11    6   25 1
    12    6   29 1
    13    7   20 1
    14    7   61 1
    15    8   21 1
    16    8   62 1
    17    9   23 1
    18    9   63 1
    19   10   24 1
    20   10   64 1
    21   11   30 1
    22   11   34 1
    23   12   31 2
    24   13   35 1
    25   13   70 1
    26   14   40 1
    27   14   71 1
    28   15   41 1
    29   15   72 1
    30   16   43 1
    31   16   73 1
    32   17   18 1
    33   17   26 1
    34   17   44 1
    35   18   19 1
    36   18   45 1
    37   19   20 1
    38   19   46 1
    39   20   25 1
    40   20   47 1
    41   21   22 1
    42   21   23 1
    43   21   48 1
    44   22   49 1
    45   23   24 1
    46   23   50 1
    47   24   27 1
    48   24   51 1
    49   25   52 1
    50   26   53 1
    51   26   54 1
    52   27   28 1
    53   27   55 1
    54   28   56 1
    55   28   57 1
    56   28   58 1
    57   29   30 2
    58   29   31 1
    59   30   33 1
    60   31   32 1
    61   32   34 ar
    62   32   35 ar
    63   33   37 ar
    64   33   38 ar
    65   34   36 ar
    66   35   39 ar
    67   36   40 ar
    68   36   65 1
    69   37   41 ar
    70   37   66 1
    71   38   42 ar
    72   38   67 1
    73   39   40 ar
    74   39   68 1
    75   41   43 ar
    76   42   43 ar
    77   42   69 1
