@<TRIPOS>MOLECULE
DB01436
   73    75     0     0     0
SMALL
USER_CHARGES

@<TRIPOS>ATOM
      1 O1         -8.7499   -0.8768    0.5103 O.3       1 <0>        -0.3914
      2 O2         -5.7747    0.9688   -2.0094 O.3       1 <0>        -0.3871
      3 C1          0.5646   -0.9155   -0.3565 C.3       1 <0>        -0.0225
      4 C2          1.8765   -0.1092   -0.5163 C.3       1 <0>        -0.0325
      5 C3         -0.2053    0.0355    0.5929 C.3       1 <0>        -0.0139
      6 C4          1.4004    1.3555   -0.6516 C.3       1 <0>        -0.0489
      7 C5         -0.0193    1.4079   -0.0572 C.3       1 <0>        -0.0457
      8 C6          0.7367   -2.2757    0.3493 C.3       1 <0>        -0.0465
      9 C7          2.8029   -0.5382   -1.6450 C.3       1 <0>        -0.0405
     10 C8         -1.5617   -0.5164    0.9392 C.2       1 <0>        -0.0659
     11 C9         -0.1423   -1.1229   -1.7206 C.3       1 <0>        -0.0588
     12 C10        -0.6173   -2.8705    0.7769 C.3       1 <0>        -0.0488
     13 C11        -1.4876   -1.8884    1.5779 C.3       1 <0>        -0.0312
     14 C12         4.0958    0.3019   -1.7089 C.3       1 <0>        -0.0502
     15 C13         3.1707   -2.0193   -1.4889 C.3       1 <0>        -0.0621
     16 C14        -2.7266    0.1111    0.7274 C.2       1 <0>        -0.0620
     17 C15         4.9526    0.3158   -0.4360 C.3       1 <0>        -0.0526
     18 C16         6.1815    1.2251   -0.5365 C.3       1 <0>        -0.0507
     19 C17        -4.0046   -0.4535    1.0829 C.2       1 <0>        -0.0582
     20 C18         7.0792    1.1834    0.7155 C.3       1 <0>        -0.0467
     21 C19        -5.1720    0.1746    0.8709 C.2       1 <0>        -0.0399
     22 C20        -6.4937   -0.4645    1.2164 C.3       1 <0>        -0.0011
     23 C21        -5.2631    1.4975    0.2565 C.2       1 <0>        -0.0229
     24 C22         7.5687   -0.2287    1.0405 C.3       1 <0>        -0.0627
     25 C23         6.3191    1.7527    1.9165 C.3       1 <0>        -0.0627
     26 C24        -7.4869   -0.4034    0.0536 C.3       1 <0>         0.0619
     27 C25        -6.2812    1.6351   -0.8520 C.3       1 <0>         0.0822
     28 C26        -7.6349    1.0318   -0.4636 C.3       1 <0>         0.0037
     29 C27        -4.5350    2.5442    0.6784 C.2       1 <0>        -0.0928
     30 H1          2.4136   -0.1900    0.4386 H         1 <0>         0.0309
     31 H2          0.3367    0.0888    1.5523 H         1 <0>         0.0351
     32 H3          1.3726    1.6889   -1.6952 H         1 <0>         0.0268
     33 H4          2.0734    2.0292   -0.1097 H         1 <0>         0.0268
     34 H5         -0.1203    2.2205    0.6699 H         1 <0>         0.0271
     35 H6         -0.7445    1.5900   -0.8580 H         1 <0>         0.0271
     36 H7          1.2129   -3.0289   -0.2778 H         1 <0>         0.0271
     37 H8          1.3650   -2.1603    1.2418 H         1 <0>         0.0271
     38 H9          2.3055   -0.4151   -2.6152 H         1 <0>         0.0301
     39 H10        -1.1792   -1.4531   -1.6024 H         1 <0>         0.0235
     40 H11         0.3597   -1.8830   -2.3263 H         1 <0>         0.0235
     41 H12        -0.1740   -0.2052   -2.3169 H         1 <0>         0.0235
     42 H13        -1.1704   -3.2041   -0.1095 H         1 <0>         0.0268
     43 H14        -0.4388   -3.7681    1.3814 H         1 <0>         0.0268
     44 H15        -1.0366   -1.7631    2.5719 H         1 <0>         0.0310
     45 H16        -2.4388   -2.3886    1.7523 H         1 <0>         0.0310
     46 H17         4.7124   -0.0546   -2.5448 H         1 <0>         0.0268
     47 H18         3.8326    1.3368   -1.9617 H         1 <0>         0.0268
     48 H19         2.3903   -2.6741   -1.8808 H         1 <0>         0.0233
     49 H20         4.0587   -2.2564   -2.0879 H         1 <0>         0.0233
     50 H21         3.4065   -2.2879   -0.4546 H         1 <0>         0.0233
     51 H22        -2.6745    1.0589    0.2119 H         1 <0>         0.0617
     52 H23         5.2631   -0.7111   -0.2219 H         1 <0>         0.0265
     53 H24         4.3427    0.6547    0.4045 H         1 <0>         0.0265
     54 H25         5.8601    2.2571   -0.7251 H         1 <0>         0.0268
     55 H26         6.7783    0.9210   -1.4057 H         1 <0>         0.0268
     56 H27        -4.0670   -1.4288    1.5462 H         1 <0>         0.0620
     57 H28         7.9519    1.8197    0.5231 H         1 <0>         0.0295
     58 H29        -6.9198    0.0445    2.0921 H         1 <0>         0.0338
     59 H30        -6.3711   -1.5109    1.5243 H         1 <0>         0.0338
     60 H31         6.7638   -0.8796    1.3957 H         1 <0>         0.0232
     61 H32         8.3263   -0.1920    1.8312 H         1 <0>         0.0232
     62 H33         8.0285   -0.6936    0.1623 H         1 <0>         0.0232
     63 H34         5.5032    1.1006    2.2432 H         1 <0>         0.0232
     64 H35         6.9979    1.8716    2.7686 H         1 <0>         0.0232
     65 H36         5.9027    2.7394    1.6878 H         1 <0>         0.0232
     66 H37        -7.1537   -1.0663   -0.7542 H         1 <0>         0.0597
     67 H38        -6.4347    2.6852   -1.1275 H         1 <0>         0.0644
     68 H39        -8.3088    1.0271   -1.3296 H         1 <0>         0.0318
     69 H40        -8.1203    1.6508    0.3024 H         1 <0>         0.0318
     70 H41        -4.6401    3.5172    0.2081 H         1 <0>         0.0538
     71 H42        -3.8560    2.4908    1.5230 H         1 <0>         0.0538
     72 H43        -9.3681   -0.8302   -0.2389 H         1 <0>         0.2098
     73 H44        -4.9342    1.3944   -2.2515 H         1 <0>         0.2102
@<TRIPOS>BOND
     1    1   26 1
     2    1   72 1
     3    2   27 1
     4    2   73 1
     5    3    4 1
     6    3    5 1
     7    3    8 1
     8    3   11 1
     9    4    6 1
    10    4    9 1
    11    4   30 1
    12    5    7 1
    13    5   10 1
    14    5   31 1
    15    6    7 1
    16    6   32 1
    17    6   33 1
    18    7   34 1
    19    7   35 1
    20    8   12 1
    21    8   36 1
    22    8   37 1
    23    9   14 1
    24    9   15 1
    25    9   38 1
    26   10   13 1
    27   10   16 2
    28   11   39 1
    29   11   40 1
    30   11   41 1
    31   12   13 1
    32   12   42 1
    33   12   43 1
    34   13   44 1
    35   13   45 1
    36   14   17 1
    37   14   46 1
    38   14   47 1
    39   15   48 1
    40   15   49 1
    41   15   50 1
    42   16   19 1
    43   16   51 1
    44   17   18 1
    45   17   52 1
    46   17   53 1
    47   18   20 1
    48   18   54 1
    49   18   55 1
    50   19   21 2
    51   19   56 1
    52   20   24 1
    53   20   25 1
    54   20   57 1
    55   21   22 1
    56   21   23 1
    57   22   26 1
    58   22   58 1
    59   22   59 1
    60   23   27 1
    61   23   29 2
    62   24   60 1
    63   24   61 1
    64   24   62 1
    65   25   63 1
    66   25   64 1
    67   25   65 1
    68   26   28 1
    69   26   66 1
    70   27   28 1
    71   27   67 1
    72   28   68 1
    73   28   69 1
    74   29   70 1
    75   29   71 1
