@<TRIPOS>MOLECULE
DB01100
   63    67     0     0     0
SMALL
USER_CHARGES

@<TRIPOS>ATOM
      1 F1          3.0829    3.0442    4.4440 F         1 <0>        -0.2055
      2 F2          6.4496   -4.5312    0.2850 F         1 <0>        -0.2055
      3 O1         -2.6745   -2.6423    0.3930 O.2       1 <0>        -0.2465
      4 N1         -0.4219    0.5846   -1.8421 N.3       1 <0>        -0.3022
      5 N2         -3.9864   -0.6877    0.0565 N.am      1 <0>        -0.2891
      6 N3         -4.9032   -2.4431    1.1582 N.am      1 <0>        -0.3059
      7 C1         -3.0634    0.1581   -0.6583 C.3       1 <0>         0.0417
      8 C2         -1.8268    0.4537    0.1902 C.3       1 <0>        -0.0191
      9 C3         -2.6522   -0.4754   -1.9876 C.3       1 <0>        -0.0191
     10 C4         -0.7955    1.2659   -0.5950 C.3       1 <0>         0.0008
     11 C5         -1.5944    0.3683   -2.7010 C.3       1 <0>         0.0008
     12 C6          0.6010    1.3488   -2.5558 C.3       1 <0>        -0.0011
     13 C7          1.8330    1.5412   -1.6717 C.3       1 <0>        -0.0394
     14 C8         -5.2976   -0.3422    0.4092 C.ar      1 <0>         0.0700
     15 C9          2.4258    0.1891   -1.2494 C.3       1 <0>        -0.0410
     16 C10        -3.7109   -2.0043    0.5151 C.2       1 <0>         0.3278
     17 C11         3.7389    0.3387   -0.4384 C.3       1 <0>         0.0093
     18 C12        -5.8549   -1.4257    1.0857 C.ar      1 <0>         0.0670
     19 C13        -6.0141    0.8153    0.1875 C.ar      1 <0>        -0.0360
     20 C14         3.5611    1.0722    0.8851 C.ar      1 <0>        -0.0398
     21 C15         4.4749   -0.9833   -0.2419 C.ar      1 <0>        -0.0398
     22 C16        -7.1438   -1.4095    1.5711 C.ar      1 <0>        -0.0362
     23 C17        -7.3261    0.8557    0.6711 C.ar      1 <0>        -0.0597
     24 C18        -7.8846   -0.2446    1.3553 C.ar      1 <0>        -0.0597
     25 C19         3.7048    2.4432    0.9102 C.ar      1 <0>        -0.0553
     26 C20         5.8481   -0.9675   -0.1312 C.ar      1 <0>        -0.0553
     27 C21         3.2618    0.3412    2.0155 C.ar      1 <0>        -0.0553
     28 C22         3.7408   -2.1479   -0.1817 C.ar      1 <0>        -0.0553
     29 C23         3.5419    3.1147    2.1220 C.ar      1 <0>        -0.0262
     30 C24         6.5208   -2.1761    0.0484 C.ar      1 <0>        -0.0262
     31 C25         3.0987    1.0124    3.2273 C.ar      1 <0>        -0.0262
     32 C26         4.4134   -3.3566   -0.0019 C.ar      1 <0>        -0.0262
     33 C27         3.2387    2.3993    3.2806 C.ar      1 <0>         0.1234
     34 C28         5.8035   -3.3708    0.1132 C.ar      1 <0>         0.1234
     35 H1         -3.5494    1.1144   -0.8822 H         1 <0>         0.0530
     36 H2         -2.1181    1.0050    1.0930 H         1 <0>         0.0298
     37 H3         -1.3528   -0.4731    0.5360 H         1 <0>         0.0298
     38 H4         -2.2518   -1.4854   -1.8377 H         1 <0>         0.0298
     39 H5         -3.5307   -0.5864   -2.6355 H         1 <0>         0.0298
     40 H6         -1.1918    2.2696   -0.7981 H         1 <0>         0.0427
     41 H7          0.0493    1.3776    0.0899 H         1 <0>         0.0427
     42 H8         -1.2941   -0.1614   -3.6132 H         1 <0>         0.0427
     43 H9         -2.0348    1.3253   -3.0106 H         1 <0>         0.0427
     44 H10         0.8984    0.8134   -3.4662 H         1 <0>         0.0426
     45 H11         0.2223    2.3310   -2.8669 H         1 <0>         0.0426
     46 H12         1.6271    2.1996   -0.8254 H         1 <0>         0.0278
     47 H13         2.5849    2.0730   -2.2702 H         1 <0>         0.0278
     48 H14         2.6153   -0.4106   -2.1496 H         1 <0>         0.0275
     49 H15         1.6835   -0.3466   -0.6469 H         1 <0>         0.0275
     50 H16         4.4064    0.9482   -1.0678 H         1 <0>         0.0397
     51 H17        -5.0495   -3.3427    1.5993 H         1 <0>         0.1704
     52 H18        -5.6033    1.6700   -0.3352 H         1 <0>         0.0639
     53 H19        -7.5712   -2.2553    2.0965 H         1 <0>         0.0639
     54 H20        -7.9274    1.7485    0.5186 H         1 <0>         0.0618
     55 H21        -8.9071   -0.1825    1.7191 H         1 <0>         0.0618
     56 H22         3.9458    3.0097    0.0159 H         1 <0>         0.0621
     57 H23         6.4143   -0.0423   -0.1790 H         1 <0>         0.0621
     58 H24         3.1181   -0.7328    2.0138 H         1 <0>         0.0621
     59 H25         2.6599   -2.1811   -0.2492 H         1 <0>         0.0621
     60 H26         3.6522    4.1943    2.1641 H         1 <0>         0.0646
     61 H27         7.6030   -2.1875    0.1384 H         1 <0>         0.0646
     62 H28         2.8569    0.4569    4.1287 H         1 <0>         0.0646
     63 H29         3.8554   -4.2867    0.0523 H         1 <0>         0.0646
@<TRIPOS>BOND
     1    1   33 1
     2    2   34 1
     3    3   16 2
     4    4   10 1
     5    4   11 1
     6    4   12 1
     7    5    7 1
     8    5   14 2
     9    5   16 am
    10    6   16 am
    11    6   18 2
    12    6   51 1
    13    7    8 1
    14    7    9 1
    15    7   35 1
    16    8   10 1
    17    8   36 1
    18    8   37 1
    19    9   11 1
    20    9   38 1
    21    9   39 1
    22   10   40 1
    23   10   41 1
    24   11   42 1
    25   11   43 1
    26   12   13 1
    27   12   44 1
    28   12   45 1
    29   13   15 1
    30   13   46 1
    31   13   47 1
    32   14   18 ar
    33   14   19 ar
    34   15   17 1
    35   15   48 1
    36   15   49 1
    37   17   20 1
    38   17   21 1
    39   17   50 1
    40   18   22 ar
    41   19   23 ar
    42   19   52 1
    43   20   25 ar
    44   20   27 ar
    45   21   26 ar
    46   21   28 ar
    47   22   24 ar
    48   22   53 1
    49   23   24 ar
    50   23   54 1
    51   24   55 1
    52   25   29 ar
    53   25   56 1
    54   26   30 ar
    55   26   57 1
    56   27   31 ar
    57   27   58 1
    58   28   32 ar
    59   28   59 1
    60   29   33 ar
    61   29   60 1
    62   30   34 ar
    63   30   61 1
    64   31   33 ar
    65   31   62 1
    66   32   34 ar
    67   32   63 1
