@<TRIPOS>MOLECULE
DB01236
   15    14     0     0     0
SMALL
USER_CHARGES

@<TRIPOS>ATOM
      1 F1         -0.9813    1.7602   -0.2927 F         1 <0>        -0.1676
      2 F2          0.4010    1.4916    1.3695 F         1 <0>        -0.1676
      3 F3          1.1601    2.0517   -0.5983 F         1 <0>        -0.1676
      4 F4          2.7299   -0.1132   -0.5611 F         1 <0>        -0.1676
      5 F5          1.8181   -2.0569   -0.1700 F         1 <0>        -0.1676
      6 F6          1.9501   -0.5685    1.4206 F         1 <0>        -0.1676
      7 F7         -2.8415   -1.2252    0.6715 F         1 <0>        -0.2183
      8 O1         -0.6307   -0.9095    0.3688 O.3       1 <0>        -0.3288
      9 C1          0.3838   -0.1715   -0.3057 C.3       1 <0>         0.2505
     10 C2          0.2426    1.2961    0.0414 C.3       1 <0>         0.4242
     11 C3          1.7287   -0.7371    0.0987 C.3       1 <0>         0.4242
     12 C4         -1.9301   -0.4675    0.0091 C.3       1 <0>         0.1903
     13 H1          0.2594   -0.3095   -1.3864 H         1 <0>         0.0780
     14 H2         -2.1755    0.5129    0.3996 H         1 <0>         0.0926
     15 H3         -2.1146   -0.5536   -1.0651 H         1 <0>         0.0926
@<TRIPOS>BOND
     1    1   10 1
     2    2   10 1
     3    3   10 1
     4    4   11 1
     5    5   11 1
     6    6   11 1
     7    7   12 1
     8    8    9 1
     9    8   12 1
    10    9   10 1
    11    9   11 1
    12    9   13 1
    13   12   14 1
    14   12   15 1
