@<TRIPOS>MOLECULE
DB01332
   38    40     0     0     0
SMALL
USER_CHARGES

@<TRIPOS>ATOM
      1 S1         -1.8915   -0.8422    2.0795 S.3       1 <0>        -0.1314
      2 S2          2.4894    3.5710   -0.3329 S.3       1 <0>        -0.0604
      3 O1         -1.9083    0.0125   -2.5175 O.2       1 <0>        -0.2731
      4 O2         -4.4454    0.8613   -2.1425 O.3       1 <0>        -0.4763
      5 O3          1.1396   -1.0056   -2.3413 O.2       1 <0>        -0.2683
      6 O4         -4.8560    2.5224   -0.6254 O.2       1 <0>        -0.2437
      7 O5          2.9334   -2.5322   -0.3154 O.3       1 <0>        -0.3964
      8 N1         -2.8148   -0.3287   -0.3718 N.am      1 <0>        -0.2492
      9 N2          0.1482   -1.0640   -0.2143 N.am      1 <0>        -0.2963
     10 N3          3.3298   -1.2078   -0.0835 N.2       1 <0>        -0.0779
     11 N4          3.8704    1.4691    0.2650 N.2       1 <0>        -0.2233
     12 N5          4.8814    3.5309    0.8283 N.pl3     1 <0>        -0.3375
     13 C1         -2.3282   -1.4420    0.4259 C.3       1 <0>         0.1042
     14 C2         -1.1782   -1.5427   -0.6017 C.3       1 <0>         0.1286
     15 C3         -1.9962   -0.5047   -1.4288 C.2       1 <0>         0.2440
     16 C4         -3.8050    0.4957    0.0367 C.2       1 <0>         0.1188
     17 C5         -3.5809   -0.2425    2.4519 C.3       1 <0>         0.0159
     18 C6         -4.2052    0.5386    1.3197 C.2       1 <0>        -0.0457
     19 C7          1.1624   -0.8483   -1.1312 C.2       1 <0>         0.2684
     20 C8         -4.4260    1.4195   -0.9138 C.2       1 <0>         0.3511
     21 C9          2.4374   -0.3582   -0.4948 C.2       1 <0>         0.1897
     22 C10         2.6997    1.0736   -0.3175 C.2       1 <0>         0.1067
     23 C11         1.8210    2.0376   -0.7108 C.2       1 <0>         0.0067
     24 C12         3.8711    2.7829    0.3111 C.2       1 <0>         0.1562
     25 C13         3.9593   -3.3892    0.1609 C.3       1 <0>         0.1072
     26 H1         -3.0092   -2.3015    0.4151 H         1 <0>         0.0644
     27 H2         -1.1205   -2.5243   -1.0864 H         1 <0>         0.0622
     28 H3          0.3496   -0.8807    0.7660 H         1 <0>         0.1499
     29 H4         -3.5067    0.4020    3.3336 H         1 <0>         0.0420
     30 H5         -4.2205   -1.0926    2.7097 H         1 <0>         0.0420
     31 H6         -5.0121    1.2065    1.6147 H         1 <0>         0.0601
     32 H7         -4.8551    1.4523   -2.8097 H         1 <0>         0.2954
     33 H8          0.8529    1.9512   -1.1839 H         1 <0>         0.0716
     34 H9          5.7158    3.1052    1.2185 H         1 <0>         0.1442
     35 H10         4.8420    4.5446    0.8440 H         1 <0>         0.1442
     36 H11         4.1065   -3.2460    1.2359 H         1 <0>         0.0687
     37 H12         4.8939   -3.1993   -0.3762 H         1 <0>         0.0687
     38 H13         3.6564   -4.4244   -0.0170 H         1 <0>         0.0687
@<TRIPOS>BOND
     1    1   13 1
     2    1   17 1
     3    2   23 1
     4    2   24 1
     5    3   15 2
     6    4   20 1
     7    4   32 1
     8    5   19 2
     9    6   20 2
    10    7   10 1
    11    7   25 1
    12    8   13 1
    13    8   15 am
    14    8   16 1
    15    9   14 1
    16    9   19 am
    17    9   28 1
    18   10   21 2
    19   11   22 1
    20   11   24 2
    21   12   24 1
    22   12   34 1
    23   12   35 1
    24   13   14 1
    25   13   26 1
    26   14   15 1
    27   14   27 1
    28   16   18 2
    29   16   20 1
    30   17   18 1
    31   17   29 1
    32   17   30 1
    33   18   31 1
    34   19   21 1
    35   21   22 1
    36   22   23 2
    37   23   33 1
    38   25   36 1
    39   25   37 1
    40   25   38 1
