@<TRIPOS>MOLECULE
DB01110
   39    41     0     0     0
SMALL
USER_CHARGES

@<TRIPOS>ATOM
      1 Cl1         2.5685    0.2851    2.8156 Cl        1 <0>        -0.0831
      2 Cl2         4.8269    3.9558   -0.4088 Cl        1 <0>        -0.0835
      3 Cl3        -0.9440    3.0097   -1.2199 Cl        1 <0>        -0.0831
      4 Cl4        -6.2406    2.3319   -0.5439 Cl        1 <0>        -0.0835
      5 O1         -0.1927   -0.2878   -0.0233 O.3       1 <0>        -0.3655
      6 N1          0.6287   -3.0651   -0.4486 N.pl3     1 <0>        -0.3340
      7 N2         -0.1043   -4.9871    0.3492 N.2       1 <0>        -0.2441
      8 C1          1.1252   -0.7214    0.2848 C.3       1 <0>         0.1032
      9 C2          1.4868   -1.9006   -0.6296 C.3       1 <0>         0.0546
     10 C3          2.0641    0.4552    0.1426 C.ar      1 <0>         0.0012
     11 C4         -0.6182    0.7494    0.8503 C.3       1 <0>         0.0749
     12 C5          2.7467    0.9613    1.2375 C.ar      1 <0>         0.0480
     13 C6          2.2179    1.0085   -1.1196 C.ar      1 <0>        -0.0533
     14 C7         -2.0059    1.1658    0.4826 C.ar      1 <0>        -0.0035
     15 C8         -0.5249   -3.3129   -1.1195 C.cat     1 <0>         0.0241
     16 C9          0.8495   -4.0854    0.4202 C.cat     1 <0>         0.0960
     17 C10         3.6045    2.0480    1.0667 C.ar      1 <0>        -0.0247
     18 C11         3.0756    2.0952   -1.2903 C.ar      1 <0>        -0.0430
     19 C12         3.7689    2.6149   -0.1972 C.ar      1 <0>         0.0424
     20 C13        -0.9640   -4.5118   -0.6093 C.2       1 <0>         0.0454
     21 C14        -2.2442    2.1800   -0.4451 C.ar      1 <0>         0.0477
     22 C15        -3.0767    0.5124    1.0922 C.ar      1 <0>        -0.0536
     23 C16        -3.5537    2.5408   -0.7626 C.ar      1 <0>        -0.0247
     24 C17        -4.3860    0.8732    0.7748 C.ar      1 <0>        -0.0430
     25 C18        -4.6246    1.8874   -0.1528 C.ar      1 <0>         0.0424
     26 H1          1.0976   -1.1216    1.3025 H         1 <0>         0.0665
     27 H2          1.4009   -1.6336   -1.6900 H         1 <0>         0.0521
     28 H3          2.5185   -2.2301   -0.4552 H         1 <0>         0.0521
     29 H4          0.0367    1.6246    0.8496 H         1 <0>         0.0611
     30 H5         -0.6160    0.3727    1.8822 H         1 <0>         0.0611
     31 H6          1.6775    0.6291   -1.9818 H         1 <0>         0.0622
     32 H7         -0.9273   -2.6490   -1.8720 H         1 <0>         0.0825
     33 H8          1.7074   -4.1262    1.0775 H         1 <0>         0.1029
     34 H9          4.1459    2.4548    1.9182 H         1 <0>         0.0647
     35 H10         3.1911    2.5291   -2.2801 H         1 <0>         0.0632
     36 H11        -1.8561   -5.0563   -0.8825 H         1 <0>         0.0845
     37 H12        -2.9073   -0.2822    1.8144 H         1 <0>         0.0622
     38 H13        -3.7417    3.3315   -1.4859 H         1 <0>         0.0647
     39 H14        -5.2107    0.3548    1.2572 H         1 <0>         0.0632
@<TRIPOS>BOND
     1    1   12 1
     2    2   19 1
     3    3   21 1
     4    4   25 1
     5    5    8 1
     6    5   11 1
     7    6    9 1
     8    6   15 1
     9    6   16 2
    10    7   16 1
    11    7   20 2
    12    8    9 1
    13    8   10 1
    14    8   26 1
    15    9   27 1
    16    9   28 1
    17   10   12 ar
    18   10   13 ar
    19   11   14 1
    20   11   29 1
    21   11   30 1
    22   12   17 ar
    23   13   18 ar
    24   13   31 1
    25   14   21 ar
    26   14   22 ar
    27   15   20 1
    28   15   32 1
    29   16   33 1
    30   17   19 ar
    31   17   34 1
    32   18   19 ar
    33   18   35 1
    34   20   36 1
    35   21   23 ar
    36   22   24 ar
    37   22   37 1
    38   23   25 ar
    39   23   38 1
    40   24   25 ar
    41   24   39 1
