@<TRIPOS>MOLECULE
DB01407
   35    35     0     0     0
SMALL
USER_CHARGES

@<TRIPOS>ATOM
      1 Cl1         3.8800   -2.8775   -0.5106 Cl        1 <0>        -0.0816
      2 Cl2         5.0847    2.2233    1.0167 Cl        1 <0>        -0.0816
      3 O1          0.2884    0.7842   -2.3015 O.3       1 <0>        -0.3859
      4 N1         -1.9727    0.6270   -0.5276 N.3       1 <0>        -0.3086
      5 N2          5.6718   -0.7089    0.5899 N.pl3     1 <0>        -0.3557
      6 C1         -2.9992   -0.1250    0.2016 C.3       1 <0>         0.0108
      7 C2         -0.6438    0.1869   -0.1382 C.3       1 <0>         0.0266
      8 C3          0.4345    0.9726   -0.8946 C.3       1 <0>         0.0927
      9 C4         -4.3785    0.3665   -0.2504 C.3       1 <0>        -0.0473
     10 C5         -2.8382   -1.6134   -0.1253 C.3       1 <0>        -0.0473
     11 C6         -2.8251    0.1056    1.7073 C.3       1 <0>        -0.0473
     12 C7          1.8250    0.5260   -0.4997 C.ar      1 <0>        -0.0151
     13 C8          2.7129    1.4551    0.0143 C.ar      1 <0>        -0.0358
     14 C9          2.1798   -0.8022   -0.6616 C.ar      1 <0>        -0.0358
     15 C10         3.4621   -1.2139   -0.2984 C.ar      1 <0>         0.0633
     16 C11         3.9953    1.0435    0.3775 C.ar      1 <0>         0.0633
     17 C12         4.3699   -0.2909    0.2211 C.ar      1 <0>         0.0617
     18 H1         -2.0731    1.6245   -0.3408 H         1 <0>         0.1225
     19 H2         -0.4489    0.3257    0.9298 H         1 <0>         0.0453
     20 H3         -0.5120   -0.8691   -0.3829 H         1 <0>         0.0453
     21 H4          0.3149    2.0458   -0.6990 H         1 <0>         0.0656
     22 H5         -5.1804   -0.1771    0.2621 H         1 <0>         0.0247
     23 H6         -4.5134    1.4330   -0.0351 H         1 <0>         0.0247
     24 H7         -4.5191    0.2231   -1.3283 H         1 <0>         0.0247
     25 H8         -1.9889   -2.0859    0.3794 H         1 <0>         0.0247
     26 H9         -2.7453   -1.7859   -1.2043 H         1 <0>         0.0247
     27 H10        -3.7245   -2.1692    0.2066 H         1 <0>         0.0247
     28 H11        -3.7021   -0.2696    2.2497 H         1 <0>         0.0247
     29 H12        -1.9644   -0.4189    2.1351 H         1 <0>         0.0247
     30 H13        -2.7374    1.1719    1.9478 H         1 <0>         0.0247
     31 H14         2.4171    2.4942    0.1344 H         1 <0>         0.0636
     32 H15         1.4830   -1.5215   -1.0832 H         1 <0>         0.0636
     33 H16        -0.6216    1.0356   -2.5350 H         1 <0>         0.2103
     34 H17         6.3281   -0.0382    0.9669 H         1 <0>         0.1424
     35 H18         5.9410   -1.6771    0.4763 H         1 <0>         0.1424
@<TRIPOS>BOND
     1    1   15 1
     2    2   16 1
     3    3    8 1
     4    3   33 1
     5    4    6 1
     6    4    7 1
     7    4   18 1
     8    5   17 1
     9    5   34 1
    10    5   35 1
    11    6    9 1
    12    6   10 1
    13    6   11 1
    14    7    8 1
    15    7   19 1
    16    7   20 1
    17    8   12 1
    18    8   21 1
    19    9   22 1
    20    9   23 1
    21    9   24 1
    22   10   25 1
    23   10   26 1
    24   10   27 1
    25   11   28 1
    26   11   29 1
    27   11   30 1
    28   12   13 ar
    29   12   14 ar
    30   13   16 ar
    31   13   31 1
    32   14   15 ar
    33   14   32 1
    34   15   17 ar
    35   16   17 ar
