@<TRIPOS>MOLECULE
DB01427
   23    24     0     0     0
SMALL
USER_CHARGES

@<TRIPOS>ATOM
      1 O1          4.1165   -1.1086   -0.1857 O.2       1 <0>        -0.2659
      2 N1          1.9232   -1.7812   -0.3385 N.am      1 <0>        -0.3270
      3 N2          3.4127    1.5026    0.3387 N.pl3     1 <0>        -0.3538
      4 N3         -4.0740    0.4560    0.0409 N.ar      1 <0>        -0.2632
      5 C1          0.1357   -0.2589   -0.0423 C.2       1 <0>         0.0001
      6 C2         -1.3190   -0.0118   -0.0131 C.ar      1 <0>        -0.0136
      7 C3          1.1220    0.7869    0.1757 C.2       1 <0>        -0.0267
      8 C4          0.5816   -1.5013   -0.2926 C.2       1 <0>         0.0128
      9 C5          2.4466    0.5615    0.1400 C.2       1 <0>         0.0904
     10 C6          2.9176   -0.8393   -0.1400 C.2       1 <0>         0.2695
     11 C7         -1.8236    1.2277   -0.3895 C.ar      1 <0>        -0.0358
     12 C8         -2.1897   -1.0178    0.3903 C.ar      1 <0>        -0.0358
     13 C9         -3.1966    1.4092   -0.3454 C.ar      1 <0>         0.0281
     14 C10        -3.5461   -0.7360    0.3997 C.ar      1 <0>         0.0281
     15 H1          0.7684    1.7897    0.3980 H         1 <0>         0.0644
     16 H2         -0.0474   -2.3591   -0.4954 H         1 <0>         0.0814
     17 H3          2.1943   -2.7403   -0.5354 H         1 <0>         0.1684
     18 H4         -1.1948    2.0425   -0.7309 H         1 <0>         0.0639
     19 H5         -1.8605   -1.9965    0.7221 H         1 <0>         0.0639
     20 H6         -3.6414    2.3560   -0.6334 H         1 <0>         0.0830
     21 H7         -4.2672   -1.4840    0.7126 H         1 <0>         0.0830
     22 H8          3.1523    2.4617    0.5311 H         1 <0>         0.1425
     23 H9          4.3895    1.2410    0.2933 H         1 <0>         0.1425
@<TRIPOS>BOND
     1    1   10 2
     2    2    8 1
     3    2   10 am
     4    2   17 1
     5    3    9 1
     6    3   22 1
     7    3   23 1
     8    4   13 ar
     9    4   14 ar
    10    5    6 1
    11    5    7 1
    12    5    8 2
    13    6   11 ar
    14    6   12 ar
    15    7    9 2
    16    7   15 1
    17    8   16 1
    18    9   10 1
    19   11   13 ar
    20   11   18 1
    21   12   14 ar
    22   12   19 1
    23   13   20 1
    24   14   21 1
