@<TRIPOS>MOLECULE
DB01580
   42    42     0     0     0
SMALL
USER_CHARGES

@<TRIPOS>ATOM
      1 O1         -0.1795    1.1249   -1.4631 O.3       1 <0>        -0.4857
      2 O2          1.5458    0.0855   -3.3800 O.3       1 <0>        -0.3872
      3 O3         -2.0368   -0.4347   -0.1046 O.3       1 <0>        -0.4843
      4 N1          2.7174   -0.1055    0.1273 N.3       1 <0>        -0.3112
      5 C1          2.2297   -0.5522   -1.1705 C.3       1 <0>         0.0254
      6 C2          2.0619    0.6093   -2.1530 C.3       1 <0>         0.1015
      7 C3          2.8142   -1.2207    1.0593 C.3       1 <0>         0.0021
      8 C4          1.1125    1.6944   -1.6501 C.3       1 <0>         0.1168
      9 C5          1.4470   -1.8714    1.2495 C.3       1 <0>        -0.0499
     10 C6          3.3745   -0.7244    2.3885 C.3       1 <0>        -0.0499
     11 C7         -0.9544    1.6687   -0.4739 C.ar      1 <0>         0.1620
     12 C8         -1.8831    0.8834    0.2022 C.ar      1 <0>         0.1624
     13 C9         -0.8018    3.0145   -0.1548 C.ar      1 <0>        -0.0163
     14 C10        -2.6666    1.4498    1.2078 C.ar      1 <0>        -0.0163
     15 C11        -1.5853    3.5805    0.8509 C.ar      1 <0>        -0.0581
     16 C12        -2.5177    2.7982    1.5320 C.ar      1 <0>        -0.0581
     17 C13        -3.3321   -0.9988    0.0902 C.3       1 <0>         0.1077
     18 C14        -3.5535   -2.0583   -0.9377 C.2       1 <0>        -0.0542
     19 C15        -3.7964   -3.3412   -0.6480 C.2       1 <0>        -0.0995
     20 H1          1.2573   -1.0510   -1.1063 H         1 <0>         0.0450
     21 H2          2.9201   -1.2870   -1.6049 H         1 <0>         0.0450
     22 H3          3.0367    1.0617   -2.3708 H         1 <0>         0.0640
     23 H4          3.5123   -1.9728    0.6697 H         1 <0>         0.0455
     24 H5          3.6281    0.3397    0.0175 H         1 <0>         0.1223
     25 H6          1.0255    2.4794   -2.4108 H         1 <0>         0.0723
     26 H7          1.5256    2.1263   -0.7304 H         1 <0>         0.0723
     27 H8          1.4668   -2.5509    2.1098 H         1 <0>         0.0245
     28 H9          0.6648   -1.1287    1.4441 H         1 <0>         0.0245
     29 H10         1.1481   -2.4816    0.3916 H         1 <0>         0.0245
     30 H11         4.3643   -0.2735    2.2558 H         1 <0>         0.0245
     31 H12         3.4820   -1.5523    3.0977 H         1 <0>         0.0245
     32 H13         2.7189    0.0258    2.8452 H         1 <0>         0.0245
     33 H14         2.1838   -0.5702   -3.7097 H         1 <0>         0.2100
     34 H15        -0.1132    3.6683   -0.6811 H         1 <0>         0.0655
     35 H16        -3.3821    0.8717    1.7850 H         1 <0>         0.0655
     36 H17        -1.4742    4.6319    1.0996 H         1 <0>         0.0619
     37 H18        -3.1236    3.2384    2.3187 H         1 <0>         0.0619
     38 H19        -4.1294   -0.2576   -0.0519 H         1 <0>         0.0742
     39 H20        -3.3944   -1.4057    1.1062 H         1 <0>         0.0742
     40 H21        -3.5174   -1.7576   -1.9816 H         1 <0>         0.0600
     41 H22        -3.9510   -4.0637   -1.4420 H         1 <0>         0.0533
     42 H23        -3.8447   -3.6926    0.3767 H         1 <0>         0.0533
@<TRIPOS>BOND
     1    1    8 1
     2    1   11 1
     3    2    6 1
     4    2   33 1
     5    3   12 1
     6    3   17 1
     7    4    5 1
     8    4    7 1
     9    4   24 1
    10    5    6 1
    11    5   20 1
    12    5   21 1
    13    6    8 1
    14    6   22 1
    15    7    9 1
    16    7   10 1
    17    7   23 1
    18    8   25 1
    19    8   26 1
    20    9   27 1
    21    9   28 1
    22    9   29 1
    23   10   30 1
    24   10   31 1
    25   10   32 1
    26   11   12 ar
    27   11   13 ar
    28   12   14 ar
    29   13   15 ar
    30   13   34 1
    31   14   16 ar
    32   14   35 1
    33   15   16 ar
    34   15   36 1
    35   16   37 1
    36   17   18 1
    37   17   38 1
    38   17   39 1
    39   18   19 2
    40   18   40 1
    41   19   41 1
    42   19   42 1
