@<TRIPOS>MOLECULE
DB01030
   54    58     0     0     0
SMALL
USER_CHARGES

@<TRIPOS>ATOM
      1 O1         -6.2024   -1.6496    0.8335 O.3       1 <0>        -0.4575
      2 O2         -4.8093    1.5529    1.4355 O.3       1 <0>        -0.3732
      3 O3         -2.6543   -3.6307   -0.3491 O.2       1 <0>        -0.2672
      4 O4         -7.0050    0.1636    1.8857 O.2       1 <0>        -0.2472
      5 O5          5.8651    2.2526   -0.5319 O.3       1 <0>        -0.5064
      6 N1         -1.4417   -1.6682   -0.1924 N.am      1 <0>        -0.3019
      7 N2          0.4233    1.4022    0.0053 N.ar      1 <0>        -0.2449
      8 N3          5.4654   -0.9615    0.4510 N.3       1 <0>        -0.3040
      9 C1         -5.0553    0.4989    0.5015 C.3       1 <0>         0.1877
     10 C2         -3.7933   -0.2885    0.2800 C.2       1 <0>         0.0082
     11 C3         -1.4065   -0.2960   -0.0062 C.2       1 <0>         0.0713
     12 C4         -0.0859   -2.2065   -0.4274 C.3       1 <0>         0.0539
     13 C5         -3.8565   -1.6184    0.0879 C.2       1 <0>         0.0606
     14 C6          0.7581   -0.9765   -0.3597 C.ar      1 <0>         0.0003
     15 C7         -0.0227    0.1439   -0.1128 C.ar      1 <0>         0.0929
     16 C8         -2.5178    0.4089    0.2199 C.2       1 <0>        -0.0290
     17 C9         -2.6049   -2.4159   -0.1710 C.2       1 <0>         0.2589
     18 C10        -5.5788    1.1045   -0.8028 C.3       1 <0>        -0.0121
     19 C11        -5.1608   -2.3397    0.1087 C.3       1 <0>         0.1230
     20 C12        -6.1573   -0.3336    1.1466 C.2       1 <0>         0.3441
     21 C13         2.1156   -0.8108   -0.5001 C.ar      1 <0>        -0.0452
     22 C14         2.6414    0.4868   -0.3861 C.ar      1 <0>         0.0086
     23 C15         1.7543    1.5712   -0.1318 C.ar      1 <0>         0.0723
     24 C16         4.0192    0.7207   -0.5193 C.ar      1 <0>         0.0171
     25 C17        -6.8318    1.9226   -0.5651 C.3       1 <0>        -0.0618
     26 C18         4.9795   -0.3994   -0.7871 C.3       1 <0>         0.0275
     27 C19         2.2980    2.8468   -0.0233 C.ar      1 <0>        -0.0323
     28 C20         4.5308    2.0104   -0.4050 C.ar      1 <0>         0.1219
     29 C21         3.6702    3.0728   -0.1573 C.ar      1 <0>        -0.0178
     30 C22         6.1621    0.0515    1.2551 C.3       1 <0>        -0.0127
     31 C23         6.3614   -2.0984    0.2010 C.3       1 <0>        -0.0127
     32 H1         -0.0602   -2.6850   -1.4108 H         1 <0>         0.0543
     33 H2          0.1503   -2.9267    0.3614 H         1 <0>         0.0543
     34 H3         -2.4872    1.4847    0.3508 H         1 <0>         0.0643
     35 H4         -5.7921    0.3257   -1.5455 H         1 <0>         0.0299
     36 H5         -4.8213    1.7704   -1.2353 H         1 <0>         0.0299
     37 H6         -5.5208   -2.5210   -0.9092 H         1 <0>         0.0750
     38 H7         -5.0509   -3.3102    0.6036 H         1 <0>         0.0750
     39 H8          2.7168   -1.6948   -0.6742 H         1 <0>         0.0628
     40 H9         -7.6915    1.2974   -0.3062 H         1 <0>         0.0231
     41 H10        -6.6979    2.6806    0.2125 H         1 <0>         0.0231
     42 H11        -7.1000    2.4514   -1.4867 H         1 <0>         0.0231
     43 H12        -4.4236    1.1646    2.2400 H         1 <0>         0.2113
     44 H13         4.5258   -1.1631   -1.4283 H         1 <0>         0.0477
     45 H14         5.8136   -0.0340   -1.4044 H         1 <0>         0.0477
     46 H15         1.6473    3.6977    0.1707 H         1 <0>         0.0640
     47 H16         4.0496    4.0871   -0.0647 H         1 <0>         0.0655
     48 H17         7.0044    0.5094    0.7263 H         1 <0>         0.0391
     49 H18         6.5852   -0.4290    2.1474 H         1 <0>         0.0391
     50 H19         5.4907    0.8103    1.6656 H         1 <0>         0.0391
     51 H20         6.6765   -2.5561    1.1453 H         1 <0>         0.0391
     52 H21         7.2563   -1.8025   -0.3583 H         1 <0>         0.0391
     53 H22         5.8406   -2.8780   -0.3660 H         1 <0>         0.0391
     54 H23         6.0285    3.2044   -0.4170 H         1 <0>         0.2921
@<TRIPOS>BOND
     1    1   19 1
     2    1   20 1
     3    2    9 1
     4    2   43 1
     5    3   17 2
     6    4   20 2
     7    5   28 1
     8    5   54 1
     9    6   11 1
    10    6   12 1
    11    6   17 am
    12    7   15 ar
    13    7   23 ar
    14    8   26 1
    15    8   30 1
    16    8   31 1
    17    9   10 1
    18    9   18 1
    19    9   20 1
    20   10   13 2
    21   10   16 1
    22   11   15 1
    23   11   16 2
    24   12   14 1
    25   12   32 1
    26   12   33 1
    27   13   17 1
    28   13   19 1
    29   14   15 ar
    30   14   21 ar
    31   16   34 1
    32   18   25 1
    33   18   35 1
    34   18   36 1
    35   19   37 1
    36   19   38 1
    37   21   22 ar
    38   21   39 1
    39   22   23 ar
    40   22   24 ar
    41   23   27 ar
    42   24   26 1
    43   24   28 ar
    44   25   40 1
    45   25   41 1
    46   25   42 1
    47   26   44 1
    48   26   45 1
    49   27   29 ar
    50   27   46 1
    51   28   29 ar
    52   29   47 1
    53   30   48 1
    54   30   49 1
    55   30   50 1
    56   31   51 1
    57   31   52 1
    58   31   53 1
