@<TRIPOS>MOLECULE
DB01010
   28    28     0     0     0
SMALL
USER_CHARGES

@<TRIPOS>ATOM
      1 O1         -3.2290   -1.8445   -0.7039 O.3       1 <0>        -0.5066
      2 N1          1.1066    0.2898   -0.3186 N.4       1 <0>        -0.3809
      3 C1          1.6817   -1.1202   -0.2009 C.3       1 <0>         0.0889
      4 C2         -0.4119    0.3130   -0.1276 C.ar      1 <0>         0.1491
      5 C3          1.7500    1.1571    0.7595 C.3       1 <0>         0.0813
      6 C4          1.4347    0.8216   -1.7109 C.3       1 <0>         0.0813
      7 C5          1.3937   -1.6621    1.1820 C.3       1 <0>        -0.0108
      8 C6         -1.0959   -0.7907   -0.5131 C.ar      1 <0>         0.0450
      9 C7         -0.9441    1.4369    0.4100 C.ar      1 <0>         0.0039
     10 C8         -2.4797   -0.7683   -0.3398 C.ar      1 <0>         0.1229
     11 C9         -2.3280    1.4594    0.5834 C.ar      1 <0>        -0.0523
     12 C10        -3.0958    0.3567    0.2086 C.ar      1 <0>        -0.0198
     13 H1          1.3083   -1.7545   -1.0099 H         1 <0>         0.0965
     14 H2          2.7669   -1.0424   -0.3480 H         1 <0>         0.0965
     15 H3          1.3111    0.9524    1.7414 H         1 <0>         0.0931
     16 H4          2.8226    0.9327    0.7815 H         1 <0>         0.0931
     17 H5          1.6520    2.2132    0.4870 H         1 <0>         0.0931
     18 H6          1.0331    1.8355   -1.8050 H         1 <0>         0.0931
     19 H7          2.5231    0.8390   -1.8222 H         1 <0>         0.0931
     20 H8          0.9858    0.1596   -2.4581 H         1 <0>         0.0931
     21 H9          1.6979   -2.7152    1.2129 H         1 <0>         0.0289
     22 H10         1.9877   -1.1625    1.9542 H         1 <0>         0.0289
     23 H11         0.3464   -1.6355    1.4887 H         1 <0>         0.0289
     24 H12        -0.6692   -1.6705   -0.9735 H         1 <0>         0.0718
     25 H13        -0.4013    2.3306    0.6852 H         1 <0>         0.0681
     26 H14        -2.8094    2.3381    1.0028 H         1 <0>         0.0621
     27 H15        -4.1732    0.3875    0.3475 H         1 <0>         0.0654
     28 H16        -4.1641   -1.6565   -0.5132 H         1 <0>         0.2921
@<TRIPOS>BOND
     1    1   10 1
     2    1   28 1
     3    2    3 1
     4    2    4 1
     5    2    5 1
     6    2    6 1
     7    3    7 1
     8    3   13 1
     9    3   14 1
    10    4    8 ar
    11    4    9 ar
    12    5   15 1
    13    5   16 1
    14    5   17 1
    15    6   18 1
    16    6   19 1
    17    6   20 1
    18    7   21 1
    19    7   22 1
    20    7   23 1
    21    8   10 ar
    22    8   24 1
    23    9   11 ar
    24    9   25 1
    25   10   12 ar
    26   11   12 ar
    27   11   26 1
    28   12   27 1
