@<TRIPOS>MOLECULE
DB01013
   64    67     0     0     0
SMALL
USER_CHARGES

@<TRIPOS>ATOM
      1 Cl1        -4.8343    0.0322   -3.2940 Cl        1 <0>        -0.1172
      2 F1          1.7139    1.5163    0.3671 F         1 <0>        -0.2377
      3 O1         -2.6183    0.8710    0.0502 O.3       1 <0>        -0.4495
      4 O2          1.6380   -0.5866   -2.5470 O.3       1 <0>        -0.3886
      5 O3         -4.2012   -1.7256   -0.9929 O.2       1 <0>        -0.2919
      6 O4         -4.7522    0.3023    0.7183 O.2       1 <0>        -0.2508
      7 O5          6.2640    3.0539    1.2208 O.2       1 <0>        -0.2879
      8 C1         -0.8425   -0.6667   -0.6527 C.3       1 <0>         0.0207
      9 C2         -0.1244   -0.6096    0.7135 C.3       1 <0>        -0.0253
     10 C3          1.3963   -0.8054    0.6121 C.3       1 <0>         0.0003
     11 C4          1.9999    0.3278   -0.2873 C.3       1 <0>         0.1526
     12 C5         -2.3240   -0.5117   -0.1877 C.3       1 <0>         0.1799
     13 C6         -0.9359   -1.5779    1.5684 C.3       1 <0>        -0.0426
     14 C7         -0.2803    0.4834   -1.5151 C.3       1 <0>        -0.0141
     15 C8         -2.4034   -1.2644    1.1786 C.3       1 <0>         0.0041
     16 C9          1.2592    0.4483   -1.6531 C.3       1 <0>         0.0910
     17 C10         3.5762    0.2520   -0.3583 C.3       1 <0>         0.0443
     18 C11         2.0312   -0.7999    2.0150 C.3       1 <0>        -0.0432
     19 C12        -0.6618   -2.0255   -1.3844 C.3       1 <0>        -0.0551
     20 C13         3.5525   -0.8727    1.9617 C.3       1 <0>        -0.0301
     21 C14         4.0997    0.2226    1.0827 C.2       1 <0>        -0.0532
     22 C15        -3.3466   -0.8718   -1.2254 C.2       1 <0>         0.1918
     23 C16        -3.2547   -2.5297    1.2167 C.3       1 <0>        -0.0583
     24 C17         4.1150   -1.0005   -1.0867 C.3       1 <0>        -0.0493
     25 C18         4.1257    1.4512   -1.1178 C.2       1 <0>        -0.0674
     26 C19         4.9587    1.1245    1.5833 C.2       1 <0>        -0.0148
     27 C20        -3.2429   -0.1261   -2.5360 C.3       1 <0>         0.0849
     28 C21         4.9796    2.3535   -0.6246 C.2       1 <0>        -0.0180
     29 C22        -3.8790    1.1318    0.5044 C.2       1 <0>         0.3078
     30 C23         5.4673    2.2422    0.7622 C.2       1 <0>         0.1787
     31 C24        -4.0256    2.6221    0.7038 C.3       1 <0>         0.0421
     32 C25        -5.4130    2.9997    1.1927 C.3       1 <0>        -0.0552
     33 H1         -0.2825    0.3897    1.1514 H         1 <0>         0.0311
     34 H2          1.6105   -1.7814    0.1659 H         1 <0>         0.0336
     35 H3         -0.6672   -2.6183    1.3527 H         1 <0>         0.0272
     36 H4         -0.7742   -1.4122    2.6391 H         1 <0>         0.0272
     37 H5         -0.5506    1.4530   -1.0798 H         1 <0>         0.0298
     38 H6         -0.7012    0.4515   -2.5238 H         1 <0>         0.0298
     39 H7         -2.7749   -0.6017    1.9709 H         1 <0>         0.0341
     40 H8          1.5330    1.4019   -2.1218 H         1 <0>         0.0626
     41 H9          1.6620   -1.6525    2.5971 H         1 <0>         0.0272
     42 H10         1.7299    0.1058    2.5576 H         1 <0>         0.0272
     43 H11        -1.2008   -2.8408   -0.8949 H         1 <0>         0.0237
     44 H12        -1.0273   -1.9781   -2.4143 H         1 <0>         0.0237
     45 H13         0.3800   -2.3464   -1.4416 H         1 <0>         0.0237
     46 H14         3.8703   -1.8495    1.5792 H         1 <0>         0.0310
     47 H15         3.9467   -0.8019    2.9828 H         1 <0>         0.0310
     48 H16        -4.3261   -2.3105    1.2050 H         1 <0>         0.0234
     49 H17        -3.0010   -3.2425    0.4270 H         1 <0>         0.0234
     50 H18        -3.0797   -3.0533    2.1653 H         1 <0>         0.0234
     51 H19         4.0310   -0.9252   -2.1756 H         1 <0>         0.0242
     52 H20         5.1837   -1.1469   -0.8792 H         1 <0>         0.0242
     53 H21         3.6039   -1.9184   -0.7817 H         1 <0>         0.0242
     54 H22         3.8202    1.5728   -2.1547 H         1 <0>         0.0583
     55 H23         2.2331   -0.1994   -3.2111 H         1 <0>         0.2099
     56 H24         5.3004    1.0787    2.6119 H         1 <0>         0.0656
     57 H25        -2.5980   -0.6651   -3.2305 H         1 <0>         0.0509
     58 H26        -2.8834    0.8935   -2.3954 H         1 <0>         0.0509
     59 H27         5.3408    3.1774   -1.2289 H         1 <0>         0.0653
     60 H28        -3.2806    2.9482    1.4371 H         1 <0>         0.0375
     61 H29        -3.8307    3.1198   -0.2522 H         1 <0>         0.0375
     62 H30        -5.6357    2.5203    2.1517 H         1 <0>         0.0235
     63 H31        -5.4887    4.0832    1.3256 H         1 <0>         0.0235
     64 H32        -6.1803    2.6876    0.4764 H         1 <0>         0.0235
@<TRIPOS>BOND
     1    1   27 1
     2    2   11 1
     3    3   12 1
     4    3   29 1
     5    4   16 1
     6    4   55 1
     7    5   22 2
     8    6   29 2
     9    7   30 2
    10    8    9 1
    11    8   12 1
    12    8   14 1
    13    8   19 1
    14    9   10 1
    15    9   13 1
    16    9   33 1
    17   10   11 1
    18   10   18 1
    19   10   34 1
    20   11   16 1
    21   11   17 1
    22   12   15 1
    23   12   22 1
    24   13   15 1
    25   13   35 1
    26   13   36 1
    27   14   16 1
    28   14   37 1
    29   14   38 1
    30   15   23 1
    31   15   39 1
    32   16   40 1
    33   17   21 1
    34   17   24 1
    35   17   25 1
    36   18   20 1
    37   18   41 1
    38   18   42 1
    39   19   43 1
    40   19   44 1
    41   19   45 1
    42   20   21 1
    43   20   46 1
    44   20   47 1
    45   21   26 2
    46   22   27 1
    47   23   48 1
    48   23   49 1
    49   23   50 1
    50   24   51 1
    51   24   52 1
    52   24   53 1
    53   25   28 2
    54   25   54 1
    55   26   30 1
    56   26   56 1
    57   27   57 1
    58   27   58 1
    59   28   30 1
    60   28   59 1
    61   29   31 1
    62   31   32 1
    63   31   60 1
    64   31   61 1
    65   32   62 1
    66   32   63 1
    67   32   64 1
