@<TRIPOS>MOLECULE
DB01144
   22    22     0     0     0
SMALL
USER_CHARGES

@<TRIPOS>ATOM
      1 Cl1         2.7306   -2.4056   -0.1864 Cl        1 <0>        -0.0800
      2 Cl2        -0.0490   -3.9482   -0.5762 Cl        1 <0>        -0.0819
      3 S1          2.6732    0.6881    0.6122 S.o2      1 <0>         0.0574
      4 S2         -2.7336    0.5704    0.6029 S.o2      1 <0>         0.0561
      5 O1          2.3687    1.8076    1.4885 O.2       1 <0>        -0.1532
      6 O2          3.7423   -0.2358    0.9543 O.2       1 <0>        -0.1532
      7 O3         -3.7513   -0.4157    0.9382 O.2       1 <0>        -0.1533
      8 O4         -2.5139    1.7104    1.4820 O.2       1 <0>        -0.1533
      9 N1          2.9343    1.2750   -0.9695 N.pl3     1 <0>        -0.2035
     10 N2         -3.0241    1.1460   -0.9794 N.pl3     1 <0>        -0.2035
     11 C1          1.2020   -0.2370    0.3785 C.ar      1 <0>         0.1265
     12 C2         -1.2138   -0.2599    0.3811 C.ar      1 <0>         0.1083
     13 C3         -0.0121    0.4268    0.5541 C.ar      1 <0>        -0.0075
     14 C4          1.2145   -1.5876    0.0303 C.ar      1 <0>         0.0856
     15 C5         -1.2013   -1.6106    0.0329 C.ar      1 <0>        -0.0155
     16 C6          0.0129   -2.2744   -0.1425 C.ar      1 <0>         0.0630
     17 H1         -0.0298    1.4827    0.8089 H         1 <0>         0.0657
     18 H2         -2.1358   -2.1481   -0.1095 H         1 <0>         0.0652
     19 H3          2.7812    2.2767   -1.1384 H         1 <0>         0.1442
     20 H4          3.7184    0.8790   -1.5023 H         1 <0>         0.1442
     21 H5         -3.7804    0.7043   -1.5161 H         1 <0>         0.1442
     22 H6         -2.9328    2.1560   -1.1436 H         1 <0>         0.1442
@<TRIPOS>BOND
     1    1   14 1
     2    2   16 1
     3    3    5 2
     4    3    6 2
     5    3    9 1
     6    3   11 1
     7    4    7 2
     8    4    8 2
     9    4   10 1
    10    4   12 1
    11    9   19 1
    12    9   20 1
    13   10   21 1
    14   10   22 1
    15   11   13 ar
    16   11   14 ar
    17   12   13 ar
    18   12   15 ar
    19   13   17 1
    20   14   16 ar
    21   15   16 ar
    22   15   18 1
