@<TRIPOS>MOLECULE
DB01599
   83    84     0     0     0
SMALL
USER_CHARGES

@<TRIPOS>ATOM
      1 S1         -0.4928    1.4634    0.4225 S.3       1 <0>        -0.1078
      2 S2          1.4711    1.6549    2.7202 S.3       1 <0>        -0.1078
      3 O1         -5.7224   -1.0844   -0.7598 O.3       1 <0>        -0.5062
      4 O2          5.5574   -0.0815   -1.2199 O.3       1 <0>        -0.5062
      5 C1         -5.7357    1.4422    0.5428 C.3       1 <0>        -0.0092
      6 C2          4.1123    2.3053   -1.7635 C.3       1 <0>        -0.0092
      7 C3         -3.3619   -2.4676   -1.5315 C.3       1 <0>        -0.0092
      8 C4          5.1683   -1.6890    1.0921 C.3       1 <0>        -0.0092
      9 C5         -4.4773    0.7406    0.1499 C.ar      1 <0>         0.0007
     10 C6          3.8775    1.4576   -0.5023 C.ar      1 <0>         0.0007
     11 C7         -3.3354   -1.1401   -0.8479 C.ar      1 <0>         0.0007
     12 C8          4.3922   -0.4394    0.8351 C.ar      1 <0>         0.0007
     13 C9         -4.5207   -0.4990   -0.4879 C.ar      1 <0>         0.1242
     14 C10         4.6183    0.3174   -0.3146 C.ar      1 <0>         0.1242
     15 C11        -3.2485    1.3392    0.4279 C.ar      1 <0>        -0.0411
     16 C12         2.9239    1.8900    0.3873 C.ar      1 <0>        -0.0411
     17 C13        -2.1064   -0.5416   -0.5699 C.ar      1 <0>        -0.0411
     18 C14         3.4318   -0.0314    1.7608 C.ar      1 <0>        -0.0411
     19 C15        -2.0644    0.6975    0.0676 C.ar      1 <0>         0.0100
     20 C16         2.6978    1.1332    1.5368 C.ar      1 <0>         0.0100
     21 C17        -0.0876    0.8115    2.1162 C.3       1 <0>         0.0655
     22 C18        -5.4284    2.8044    1.2369 C.3       1 <0>        -0.0559
     23 C19        -6.7077    1.7829   -0.6343 C.3       1 <0>        -0.0559
     24 C20        -6.5730    0.5830    1.5392 C.3       1 <0>        -0.0559
     25 C21         5.5550    2.8438   -1.8951 C.3       1 <0>        -0.0559
     26 C22         3.8264    1.4561   -3.0211 C.3       1 <0>        -0.0559
     27 C23         3.1688    3.5275   -1.7510 C.3       1 <0>        -0.0559
     28 C24        -4.1241   -2.3875   -2.8897 C.3       1 <0>        -0.0559
     29 C25        -1.9183   -2.9769   -1.8299 C.3       1 <0>        -0.0559
     30 C26        -4.0542   -3.6191   -0.7311 C.3       1 <0>        -0.0559
     31 C27         5.6365   -2.4609   -0.1849 C.3       1 <0>        -0.0559
     32 C28         6.4693   -1.3893    1.8981 C.3       1 <0>        -0.0559
     33 C29         4.3293   -2.7145    1.9148 C.3       1 <0>        -0.0559
     34 C30         0.0781   -0.7114    2.1396 C.3       1 <0>        -0.0408
     35 C31        -1.1852    1.2295    3.1068 C.3       1 <0>        -0.0408
     36 H1         -3.1494    2.3025    0.9139 H         1 <0>         0.0633
     37 H2          2.3381    2.7927    0.2812 H         1 <0>         0.0633
     38 H3         -1.1525   -0.9876   -0.8254 H         1 <0>         0.0633
     39 H4          3.2491   -0.5773    2.6800 H         1 <0>         0.0633
     40 H5         -4.9128    3.5047    0.5688 H         1 <0>         0.0238
     41 H6         -6.3612    3.3003    1.5358 H         1 <0>         0.0238
     42 H7         -4.8509    2.6788    2.1609 H         1 <0>         0.0238
     43 H8         -7.5273    2.4286   -0.2970 H         1 <0>         0.0238
     44 H9         -6.1727    2.3103   -1.4324 H         1 <0>         0.0238
     45 H10        -7.1731    0.8982   -1.0748 H         1 <0>         0.0238
     46 H11        -5.9597    0.2744    2.3943 H         1 <0>         0.0238
     47 H12        -7.4195    1.1582    1.9337 H         1 <0>         0.0238
     48 H13        -6.9923   -0.3211    1.0898 H         1 <0>         0.0238
     49 H14         6.2988    2.0561   -2.0421 H         1 <0>         0.0238
     50 H15         5.6456    3.5248   -2.7499 H         1 <0>         0.0238
     51 H16         5.8439    3.4000   -0.9955 H         1 <0>         0.0238
     52 H17         4.5640    0.6703   -3.2040 H         1 <0>         0.0238
     53 H18         3.8225    2.0866   -3.9188 H         1 <0>         0.0238
     54 H19         2.8414    0.9781   -2.9576 H         1 <0>         0.0238
     55 H20         3.3648    4.2074   -0.9130 H         1 <0>         0.0238
     56 H21         2.1090    3.2456   -1.7700 H         1 <0>         0.0238
     57 H22         3.3233    4.1272   -2.6582 H         1 <0>         0.0238
     58 H23        -5.2065   -2.2891   -2.7779 H         1 <0>         0.0238
     59 H24        -3.9604   -3.2972   -3.4804 H         1 <0>         0.0238
     60 H25        -3.7678   -1.5410   -3.4885 H         1 <0>         0.0238
     61 H26        -1.3358   -3.1369   -0.9144 H         1 <0>         0.0238
     62 H27        -1.3729   -2.3063   -2.5049 H         1 <0>         0.0238
     63 H28        -1.9539   -3.9484   -2.3401 H         1 <0>         0.0238
     64 H29        -3.9755   -4.5759   -1.2605 H         1 <0>         0.0238
     65 H30        -5.1182   -3.4329   -0.5594 H         1 <0>         0.0238
     66 H31        -3.5819   -3.7379    0.2512 H         1 <0>         0.0238
     67 H32         6.5366   -2.0447   -0.6467 H         1 <0>         0.0238
     68 H33         4.8356   -2.5335   -0.9299 H         1 <0>         0.0238
     69 H34         5.9195   -3.4909    0.0691 H         1 <0>         0.0238
     70 H35         7.1274   -0.7036    1.3527 H         1 <0>         0.0238
     71 H36         7.0314   -2.3075    2.1028 H         1 <0>         0.0238
     72 H37         6.2344   -0.9191    2.8603 H         1 <0>         0.0238
     73 H38         3.3544   -2.9008    1.4488 H         1 <0>         0.0238
     74 H39         4.1699   -2.3965    2.9508 H         1 <0>         0.0238
     75 H40         4.8453   -3.6800    1.9866 H         1 <0>         0.0238
     76 H41         0.4515   -1.0573    3.1109 H         1 <0>         0.0251
     77 H42        -0.8786   -1.2215    1.9801 H         1 <0>         0.0251
     78 H43         0.7667   -1.0689    1.3670 H         1 <0>         0.0251
     79 H44        -1.3802    2.3087    3.0852 H         1 <0>         0.0251
     80 H45        -2.1310    0.7124    2.9130 H         1 <0>         0.0251
     81 H46        -0.9111    0.9653    4.1364 H         1 <0>         0.0251
     82 H47        -6.0187   -0.7180   -1.6108 H         1 <0>         0.2922
     83 H48         6.4210    0.0163   -0.7811 H         1 <0>         0.2922
@<TRIPOS>BOND
     1    1   19 1
     2    1   21 1
     3    2   20 1
     4    2   21 1
     5    3   13 1
     6    3   82 1
     7    4   14 1
     8    4   83 1
     9    5    9 1
    10    5   22 1
    11    5   23 1
    12    5   24 1
    13    6   10 1
    14    6   25 1
    15    6   26 1
    16    6   27 1
    17    7   11 1
    18    7   28 1
    19    7   29 1
    20    7   30 1
    21    8   12 1
    22    8   31 1
    23    8   32 1
    24    8   33 1
    25    9   13 ar
    26    9   15 ar
    27   10   14 ar
    28   10   16 ar
    29   11   13 ar
    30   11   17 ar
    31   12   14 ar
    32   12   18 ar
    33   15   19 ar
    34   15   36 1
    35   16   20 ar
    36   16   37 1
    37   17   19 ar
    38   17   38 1
    39   18   20 ar
    40   18   39 1
    41   21   34 1
    42   21   35 1
    43   22   40 1
    44   22   41 1
    45   22   42 1
    46   23   43 1
    47   23   44 1
    48   23   45 1
    49   24   46 1
    50   24   47 1
    51   24   48 1
    52   25   49 1
    53   25   50 1
    54   25   51 1
    55   26   52 1
    56   26   53 1
    57   26   54 1
    58   27   55 1
    59   27   56 1
    60   27   57 1
    61   28   58 1
    62   28   59 1
    63   28   60 1
    64   29   61 1
    65   29   62 1
    66   29   63 1
    67   30   64 1
    68   30   65 1
    69   30   66 1
    70   31   67 1
    71   31   68 1
    72   31   69 1
    73   32   70 1
    74   32   71 1
    75   32   72 1
    76   33   73 1
    77   33   74 1
    78   33   75 1
    79   34   76 1
    80   34   77 1
    81   34   78 1
    82   35   79 1
    83   35   80 1
    84   35   81 1
