@<TRIPOS>MOLECULE
DB01028
   12    11     0     0     0
SMALL
USER_CHARGES

@<TRIPOS>ATOM
      1 Cl1         2.0411   -1.8146   -0.4899 Cl        1 <0>        -0.0954
      2 Cl2         3.0093    0.9229   -0.3400 Cl        1 <0>        -0.0954
      3 F1          0.2358    0.4685   -1.4522 F         1 <0>        -0.1723
      4 F2          0.1722    1.5161    0.4687 F         1 <0>        -0.1723
      5 O1         -0.6292   -0.5895    0.3595 O.3       1 <0>        -0.3211
      6 C1          0.3720    0.3065   -0.1137 C.3       1 <0>         0.3867
      7 C2          1.7588   -0.2094    0.2323 C.3       1 <0>         0.1974
      8 C3         -1.9453   -0.1475    0.0584 C.3       1 <0>         0.0426
      9 H1          1.8741   -0.3140    1.3150 H         1 <0>         0.0722
     10 H2         -2.1470    0.8175    0.5325 H         1 <0>         0.0526
     11 H3         -2.6523   -0.8823    0.4531 H         1 <0>         0.0526
     12 H4         -2.0896   -0.0741   -1.0236 H         1 <0>         0.0526
@<TRIPOS>BOND
     1    1    7 1
     2    2    7 1
     3    3    6 1
     4    4    6 1
     5    5    6 1
     6    5    8 1
     7    6    7 1
     8    7    9 1
     9    8   10 1
    10    8   11 1
    11    8   12 1
