@<TRIPOS>MOLECULE
DB01296
   25    25     0     0     0
SMALL
USER_CHARGES

@<TRIPOS>ATOM
      1 O1          0.5961    1.2121   -0.3977 O.3       1 <0>        -0.3417
      2 O2         -1.6528   -2.2283   -0.2762 O.3       1 <0>        -0.3874
      3 O3          1.0497   -2.2612    0.7101 O.3       1 <0>        -0.3865
      4 O4         -1.2945    2.5375   -0.6984 O.3       1 <0>        -0.3656
      5 O5          3.2656    1.3567    0.2155 O.3       1 <0>        -0.3924
      6 N1         -2.9703    0.3510    0.1497 N.3       1 <0>        -0.3211
      7 C1         -0.9888   -1.0866    0.2688 C.3       1 <0>         0.1033
      8 C2          0.5059   -1.1858   -0.0506 C.3       1 <0>         0.1109
      9 C3         -1.5996    0.1798   -0.3410 C.3       1 <0>         0.0851
     10 C4          1.2192    0.1259    0.2914 C.3       1 <0>         0.1129
     11 C5         -0.7596    1.4159    0.0024 C.3       1 <0>         0.1744
     12 C6          2.6867    0.1101   -0.1250 C.3       1 <0>         0.0730
     13 H1         -1.1380   -1.1183    1.3556 H         1 <0>         0.0637
     14 H2          0.6320   -1.4299   -1.1132 H         1 <0>         0.0646
     15 H3         -1.6573    0.0722   -1.4320 H         1 <0>         0.0535
     16 H4          1.1750    0.3245    1.3709 H         1 <0>         0.0647
     17 H5         -0.7925    1.6373    1.0772 H         1 <0>         0.0925
     18 H6          2.7958   -0.0262   -1.2061 H         1 <0>         0.0584
     19 H7          3.2479   -0.6751    0.3885 H         1 <0>         0.0584
     20 H8         -2.9626    0.4645    1.1629 H         1 <0>         0.1187
     21 H9         -3.5053   -0.4971   -0.0341 H         1 <0>         0.1187
     22 H10        -1.5260   -2.2197   -1.2402 H         1 <0>         0.2100
     23 H11         1.9422   -2.4428    0.3714 H         1 <0>         0.2100
     24 H12        -1.0308    3.3332   -0.2058 H         1 <0>         0.2125
     25 H13         2.7621    2.0503   -0.2441 H         1 <0>         0.2095
@<TRIPOS>BOND
     1    1   10 1
     2    1   11 1
     3    2    7 1
     4    2   22 1
     5    3    8 1
     6    3   23 1
     7    4   11 1
     8    4   24 1
     9    5   12 1
    10    5   25 1
    11    6    9 1
    12    6   20 1
    13    6   21 1
    14    7    8 1
    15    7    9 1
    16    7   13 1
    17    8   10 1
    18    8   14 1
    19    9   11 1
    20    9   15 1
    21   10   12 1
    22   10   16 1
    23   11   17 1
    24   12   18 1
    25   12   19 1
