@<TRIPOS>MOLECULE
DB01215
   32    35     0     0     0
SMALL
USER_CHARGES

@<TRIPOS>ATOM
      1 Cl1        -0.2302   -4.2712    1.6308 Cl        1 <0>        -0.0835
      2 N1         -2.4778    0.7887   -0.4990 N.pl3     1 <0>        -0.2834
      3 N2          0.0919    1.9536    0.6662 N.2       1 <0>        -0.2749
      4 N3         -2.9617    2.9307   -0.6801 N.2       1 <0>        -0.1324
      5 N4         -3.7887    2.2312   -1.5248 N.2       1 <0>        -0.1375
      6 C1         -1.8784   -0.4112   -0.0566 C.ar      1 <0>         0.0585
      7 C2         -0.5806   -0.4357    0.4908 C.ar      1 <0>         0.0258
      8 C3          0.3766    0.7194    0.4218 C.2       1 <0>         0.0752
      9 C4         -2.2009    2.0604   -0.0506 C.cat     1 <0>         0.1593
     10 C5         -1.2543    2.3294    1.0534 C.3       1 <0>         0.1004
     11 C6          1.7841    0.4427    0.0062 C.ar      1 <0>         0.0006
     12 C7         -2.6219   -1.6000   -0.1370 C.ar      1 <0>        -0.0357
     13 C8         -0.0913   -1.6389    1.0291 C.ar      1 <0>        -0.0322
     14 C9         -3.5089    0.9552   -1.3868 C.cat     1 <0>         0.1244
     15 C10        -2.1083   -2.7898    0.3798 C.ar      1 <0>        -0.0414
     16 C11        -0.8527   -2.8060    0.9764 C.ar      1 <0>         0.0417
     17 C12         2.0466   -0.6078   -0.8625 C.ar      1 <0>        -0.0526
     18 C13         2.8104    1.2402    0.4936 C.ar      1 <0>        -0.0526
     19 C14         3.3611   -0.8661   -1.2510 C.ar      1 <0>        -0.0611
     20 C15         4.1249    0.9819    0.1048 C.ar      1 <0>        -0.0611
     21 C16         4.4001   -0.0713   -0.7674 C.ar      1 <0>        -0.0617
     22 H1         -1.2608    3.4014    1.2803 H         1 <0>         0.0590
     23 H2         -1.5609    1.8213    1.9757 H         1 <0>         0.0590
     24 H3         -3.6243   -1.6240   -0.5556 H         1 <0>         0.0639
     25 H4          0.8912   -1.6750    1.4964 H         1 <0>         0.0639
     26 H5         -3.9924    0.1472   -1.9176 H         1 <0>         0.1052
     27 H6         -2.7098   -3.6937    0.3241 H         1 <0>         0.0633
     28 H7          1.2619   -1.2211   -1.2949 H         1 <0>         0.0624
     29 H8          2.6223    2.0597    1.1815 H         1 <0>         0.0624
     30 H9          3.5748   -1.6798   -1.9380 H         1 <0>         0.0618
     31 H10         4.9346    1.5996    0.4826 H         1 <0>         0.0618
     32 H11         5.4234   -0.2713   -1.0715 H         1 <0>         0.0618
@<TRIPOS>BOND
     1    1   16 1
     2    2    6 1
     3    2    9 1
     4    2   14 2
     5    3    8 2
     6    3   10 1
     7    4    5 2
     8    4    9 1
     9    5   14 1
    10    6    7 ar
    11    6   12 ar
    12    7    8 1
    13    7   13 ar
    14    8   11 1
    15    9   10 1
    16   10   22 1
    17   10   23 1
    18   11   17 ar
    19   11   18 ar
    20   12   15 ar
    21   12   24 1
    22   13   16 ar
    23   13   25 1
    24   14   26 1
    25   15   16 ar
    26   15   27 1
    27   17   19 ar
    28   17   28 1
    29   18   20 ar
    30   18   29 1
    31   19   21 ar
    32   19   30 1
    33   20   21 ar
    34   20   31 1
    35   21   32 1
