@<TRIPOS>MOLECULE
DB01987
   44    45     0     0     0
SMALL
USER_CHARGES

@<TRIPOS>ATOM
      1 S1          1.6959    1.9941    2.1074 S.3       1 <0>        -0.0273
      2 P1          2.9622   -2.4015   -0.9620 P.3       1 <0>         0.2221
      3 P2          0.9758   -2.5482    1.2252 P.3       1 <0>         0.4778
      4 O1          2.9020   -0.7752   -0.7958 O.3       1 <0>        -0.3268
      5 O2          2.3882   -2.8458    0.5007 O.3       1 <0>        -0.2293
      6 O3          1.9552   -2.8072   -2.0161 O.3       1 <0>        -0.4370
      7 O4          4.4061   -2.8431   -1.0657 O.2       1 <0>        -0.5170
      8 O5          1.0509   -3.4397    2.5724 O.3       1 <0>        -0.3024
      9 O6         -0.0965   -3.3512    0.3197 O.3       1 <0>        -0.3024
     10 O7          0.6487   -1.1017    1.4507 O.2       1 <0>        -0.2272
     11 N1         -0.0699    2.2461    0.3463 N.pl3     1 <0>        -0.1903
     12 N2         -3.6662   -0.3788    0.5455 N.ar      1 <0>        -0.2176
     13 N3         -2.6632   -0.7663   -1.6111 N.ar      1 <0>        -0.2400
     14 N4         -3.1297    1.5742    1.7793 N.pl3     1 <0>        -0.3427
     15 C1          1.0667    1.9089   -0.3541 C.2       1 <0>         0.1915
     16 C2          2.1201    1.7385    0.4777 C.2       1 <0>         0.0636
     17 C3         -1.3481    2.4902   -0.2786 C.3       1 <0>         0.1811
     18 C4          3.5444    1.3678    0.1382 C.3       1 <0>         0.0086
     19 C5          0.0831    2.3343    1.6500 C.2       1 <0>         0.2109
     20 C6         -2.1220    1.2033   -0.3664 C.ar      1 <0>         0.0747
     21 C7          0.9764    1.7919   -1.8170 C.3       1 <0>         0.0216
     22 C8          3.7588   -0.1434    0.1409 C.3       1 <0>         0.0595
     23 C9         -2.9699    0.7746    0.6207 C.ar      1 <0>         0.1289
     24 C10        -1.9977    0.3988   -1.4697 C.ar      1 <0>         0.0421
     25 C11        -3.4683   -1.0895   -0.5812 C.ar      1 <0>         0.1280
     26 C12        -4.2210   -2.3711   -0.7009 C.3       1 <0>        -0.0046
     27 H1         -1.8886    3.2563    0.2894 H         1 <0>         0.1087
     28 H2         -1.2576    2.9540   -1.2637 H         1 <0>         0.1087
     29 H3          3.7858    1.7651   -0.8549 H         1 <0>         0.0343
     30 H4          4.2423    1.8393    0.8405 H         1 <0>         0.0343
     31 H5         -0.6944    2.6026    2.3499 H         1 <0>         0.1462
     32 H6          3.5699   -0.5571    1.1371 H         1 <0>         0.0567
     33 H7          4.7981   -0.3603   -0.1265 H         1 <0>         0.0567
     34 H8          0.6944    0.7777   -2.1075 H         1 <0>         0.0336
     35 H9          0.3358    2.5236   -2.3081 H         1 <0>         0.0336
     36 H10         1.9656    1.9570   -2.2612 H         1 <0>         0.0336
     37 H11        -1.4058    0.6710   -2.3327 H         1 <0>         0.0836
     38 H12        -3.7423    1.1934    2.4915 H         1 <0>         0.1437
     39 H13        -3.1303    2.5809    1.6835 H         1 <0>         0.1437
     40 H14        -5.0545   -2.4076    0.0076 H         1 <0>         0.0308
     41 H15        -4.6279   -2.4822   -1.7107 H         1 <0>         0.0308
     42 H16        -3.5524   -3.2126   -0.4958 H         1 <0>         0.0308
     43 H17         1.5720   -3.1060    3.3336 H         1 <0>         0.2220
     44 H18        -0.3921   -2.9553   -0.5279 H         1 <0>         0.2220
@<TRIPOS>BOND
     1    1   16 1
     2    1   19 1
     3    2    4 1
     4    2    5 1
     5    2    6 1
     6    2    7 2
     7    3    5 1
     8    3    8 1
     9    3    9 1
    10    3   10 2
    11    4   22 1
    12    8   43 1
    13    9   44 1
    14   11   15 1
    15   11   17 1
    16   11   19 2
    17   12   23 ar
    18   12   25 ar
    19   13   24 ar
    20   13   25 ar
    21   14   23 1
    22   14   38 1
    23   14   39 1
    24   15   16 2
    25   15   21 1
    26   16   18 1
    27   17   20 1
    28   17   27 1
    29   17   28 1
    30   18   22 1
    31   18   29 1
    32   18   30 1
    33   19   31 1
    34   20   23 ar
    35   20   24 ar
    36   21   34 1
    37   21   35 1
    38   21   36 1
    39   22   32 1
    40   22   33 1
    41   24   37 1
    42   25   26 1
    43   26   40 1
    44   26   41 1
    45   26   42 1
