@<TRIPOS>MOLECULE
DB01205
   36    38     0     0     0
SMALL
USER_CHARGES

@<TRIPOS>ATOM
      1 F1         -6.3622   -1.0362    0.2843 F         1 <0>        -0.2055
      2 O1         -3.0858    2.2619   -1.2855 O.2       1 <0>        -0.2699
      3 O2          3.6415   -0.6131   -0.0348 O.3       1 <0>        -0.4603
      4 O3          2.6665    1.2741    0.8520 O.2       1 <0>        -0.2432
      5 N1         -0.8178   -1.0095   -0.1418 N.pl3     1 <0>        -0.2997
      6 N2         -1.1681    1.9792   -0.0190 N.am      1 <0>        -0.2947
      7 N3          1.2601   -1.7715   -0.4853 N.2       1 <0>        -0.2285
      8 C1          0.0463   -0.0298    0.2988 C.cat     1 <0>         0.0747
      9 C2         -0.4180    1.2078    0.9562 C.3       1 <0>         0.0576
     10 C3         -2.2331   -0.9680   -0.0867 C.ar      1 <0>         0.0601
     11 C4         -2.9599    0.2396   -0.1400 C.ar      1 <0>         0.0634
     12 C5          1.3104   -0.5162    0.0513 C.2       1 <0>         0.1703
     13 C6         -2.4063    1.5753   -0.5195 C.2       1 <0>         0.2488
     14 C7         -0.0218   -2.0515   -0.5659 C.cat     1 <0>         0.1016
     15 C8         -2.9225   -2.1861    0.0510 C.ar      1 <0>        -0.0344
     16 C9         -0.5826    3.2452   -0.4423 C.3       1 <0>         0.0039
     17 C10        -4.3605    0.1944   -0.0083 C.ar      1 <0>        -0.0123
     18 C11        -4.3115   -2.2069    0.1787 C.ar      1 <0>        -0.0245
     19 C12         2.5509    0.1424    0.3323 C.2       1 <0>         0.3595
     20 C13        -5.0288   -1.0178    0.1600 C.ar      1 <0>         0.1242
     21 C14         4.9422   -0.0617    0.1970 C.3       1 <0>         0.0900
     22 C15         5.9878   -1.0489   -0.2761 C.3       1 <0>        -0.0306
     23 H1         -1.0828    0.9656    1.7944 H         1 <0>         0.0529
     24 H2          0.3912    1.8170    1.3644 H         1 <0>         0.0529
     25 H3         -0.4209   -2.9786   -0.9549 H         1 <0>         0.1032
     26 H4         -2.4006   -3.1380    0.1045 H         1 <0>         0.0639
     27 H5          0.4142    3.0538   -0.8507 H         1 <0>         0.0429
     28 H6         -0.5040    3.9032    0.4279 H         1 <0>         0.0429
     29 H7         -1.1903    3.7368   -1.2060 H         1 <0>         0.0429
     30 H8         -4.9554    1.1045   -0.0507 H         1 <0>         0.0654
     31 H9         -4.8307   -3.1527    0.3024 H         1 <0>         0.0647
     32 H10         5.0409    0.8791   -0.3554 H         1 <0>         0.0695
     33 H11         5.0687    0.1307    1.2680 H         1 <0>         0.0695
     34 H12         6.9963   -0.6585   -0.1135 H         1 <0>         0.0262
     35 H13         5.8870   -2.0010    0.2552 H         1 <0>         0.0262
     36 H14         5.8595   -1.2646   -1.3419 H         1 <0>         0.0262
@<TRIPOS>BOND
     1    1   20 1
     2    2   13 2
     3    3   19 1
     4    3   21 1
     5    4   19 2
     6    5    8 1
     7    5   10 1
     8    5   14 2
     9    6    9 1
    10    6   13 am
    11    6   16 1
    12    7   12 2
    13    7   14 1
    14    8    9 1
    15    8   12 1
    16    9   23 1
    17    9   24 1
    18   10   11 ar
    19   10   15 ar
    20   11   13 1
    21   11   17 ar
    22   12   19 1
    23   14   25 1
    24   15   18 ar
    25   15   26 1
    26   16   27 1
    27   16   28 1
    28   16   29 1
    29   17   20 ar
    30   17   30 1
    31   18   20 ar
    32   18   31 1
    33   21   22 1
    34   21   32 1
    35   21   33 1
    36   22   34 1
    37   22   35 1
    38   22   36 1
