@<TRIPOS>MOLECULE
DB01127
   39    41     0     0     0
SMALL
USER_CHARGES

@<TRIPOS>ATOM
      1 Cl1        -2.5730    0.3848   -2.8038 Cl        1 <0>        -0.0831
      2 Cl2        -4.6887    4.1174    0.4461 Cl        1 <0>        -0.0835
      3 Cl3         6.2681    2.2090    0.5978 Cl        1 <0>        -0.0835
      4 O1          0.1764   -0.2985    0.0213 O.3       1 <0>        -0.3656
      5 N1         -0.7404   -3.0472    0.4372 N.pl3     1 <0>        -0.3340
      6 N2         -0.0784   -4.9899   -0.3724 N.2       1 <0>        -0.2441
      7 C1         -1.1567   -0.6838   -0.2834 C.3       1 <0>         0.1032
      8 C2         -1.5562   -1.8538    0.6269 C.3       1 <0>         0.0546
      9 C3         -2.0531    0.5243   -0.1322 C.ar      1 <0>         0.0012
     10 C4          0.6345    0.7279   -0.8501 C.3       1 <0>         0.0736
     11 C5         -2.7215    1.0593   -1.2220 C.ar      1 <0>         0.0480
     12 C6         -2.1825    1.0768    1.1331 C.ar      1 <0>        -0.0533
     13 C7          2.0345    1.0954   -0.4896 C.ar      1 <0>        -0.0218
     14 C8          0.4062   -3.3385    1.1025 C.cat     1 <0>         0.0241
     15 C9         -1.0002   -4.0548   -0.4355 C.cat     1 <0>         0.0960
     16 C10        -3.5398    2.1748   -1.0430 C.ar      1 <0>        -0.0247
     17 C11        -3.0007    2.1921    1.3121 C.ar      1 <0>        -0.0430
     18 C12        -3.6793    2.7411    0.2241 C.ar      1 <0>         0.0424
     19 C13         0.8010   -4.5498    0.5849 C.2       1 <0>         0.0454
     20 C14         2.2724    2.1039    0.4440 C.ar      1 <0>        -0.0550
     21 C15         3.1057    0.4311   -1.0869 C.ar      1 <0>        -0.0550
     22 C16         3.5815    2.4483    0.7803 C.ar      1 <0>        -0.0431
     23 C17         4.4150    0.7753   -0.7505 C.ar      1 <0>        -0.0431
     24 C18         4.6529    1.7839    0.1832 C.ar      1 <0>         0.0410
     25 H1         -1.1470   -1.0800   -1.3030 H         1 <0>         0.0665
     26 H2         -1.4570   -1.5953    1.6881 H         1 <0>         0.0521
     27 H3         -2.5994   -2.1460    0.4548 H         1 <0>         0.0521
     28 H4          0.5984    0.3787   -1.8901 H         1 <0>         0.0610
     29 H5          0.0281    1.6378   -0.7888 H         1 <0>         0.0610
     30 H6         -1.6523    0.6748    1.9912 H         1 <0>         0.0622
     31 H7          0.8347   -2.6929    1.8566 H         1 <0>         0.0825
     32 H8         -1.8615   -4.0622   -1.0896 H         1 <0>         0.1029
     33 H9         -4.0698    2.6043   -1.8905 H         1 <0>         0.0647
     34 H10        -3.0975    2.6250    2.3045 H         1 <0>         0.0632
     35 H11         1.6744   -5.1266    0.8521 H         1 <0>         0.0845
     36 H12         1.4462    2.6272    0.9182 H         1 <0>         0.0621
     37 H13         2.9332   -0.3583   -1.8139 H         1 <0>         0.0621
     38 H14         3.7518    3.2359    1.5099 H         1 <0>         0.0632
     39 H15         5.2399    0.2486   -1.2235 H         1 <0>         0.0632
@<TRIPOS>BOND
     1    1   11 1
     2    2   18 1
     3    3   24 1
     4    4    7 1
     5    4   10 1
     6    5    8 1
     7    5   14 1
     8    5   15 2
     9    6   15 1
    10    6   19 2
    11    7    8 1
    12    7    9 1
    13    7   25 1
    14    8   26 1
    15    8   27 1
    16    9   11 ar
    17    9   12 ar
    18   10   13 1
    19   10   28 1
    20   10   29 1
    21   11   16 ar
    22   12   17 ar
    23   12   30 1
    24   13   20 ar
    25   13   21 ar
    26   14   19 1
    27   14   31 1
    28   15   32 1
    29   16   18 ar
    30   16   33 1
    31   17   18 ar
    32   17   34 1
    33   19   35 1
    34   20   22 ar
    35   20   36 1
    36   21   23 ar
    37   21   37 1
    38   22   24 ar
    39   22   38 1
    40   23   24 ar
    41   23   39 1
