@<TRIPOS>MOLECULE
DB01298
   34    35     0     0     0
SMALL
USER_CHARGES

@<TRIPOS>ATOM
      1 S1          1.5066   -2.2521   -1.0461 S.o2      1 <0>         0.0735
      2 O1          0.9469   -1.9696   -2.3539 O.2       1 <0>        -0.1499
      3 O2          2.3237   -3.4316   -0.8361 O.2       1 <0>        -0.1499
      4 O3         -2.6379    0.5458   -2.1816 O.2       1 <0>        -0.2444
      5 N1         -3.2710   -0.1834   -0.0823 N.am      1 <0>        -0.2993
      6 N2          0.2663   -2.2163    0.1243 N.pl3     1 <0>        -0.1993
      7 N3         -1.1841   -0.8102   -1.0801 N.2       1 <0>        -0.1767
      8 N4          4.7604    2.4407    0.6115 N.pl3     1 <0>        -0.3580
      9 C1          2.4745   -0.8572   -0.5538 C.ar      1 <0>         0.1087
     10 C2         -0.9407   -1.4902   -0.0098 C.2       1 <0>         0.1446
     11 C3         -4.5373    0.5382   -0.1445 C.3       1 <0>         0.0247
     12 C4         -2.9671   -0.9238    1.0419 C.2       1 <0>         0.0126
     13 C5         -1.8262   -1.6042    1.1570 C.2       1 <0>        -0.0040
     14 C6          3.5035   -1.0357    0.3547 C.ar      1 <0>        -0.0333
     15 C7          2.1844    0.3878   -1.0845 C.ar      1 <0>        -0.0333
     16 C8         -2.3786   -0.1123   -1.1726 C.2       1 <0>         0.3501
     17 C9          4.2662    0.0652    0.7443 C.ar      1 <0>        -0.0392
     18 C10         2.9475    1.4886   -0.6950 C.ar      1 <0>        -0.0392
     19 C11         3.9884    1.3274    0.2194 C.ar      1 <0>         0.0247
     20 C12        -4.3691    1.9373    0.4163 C.3       1 <0>        -0.0470
     21 H1          0.3995   -2.8133    0.9512 H         1 <0>         0.1752
     22 H2         -4.8736    0.5993   -1.1854 H         1 <0>         0.0490
     23 H3         -5.3033   -0.0130    0.4130 H         1 <0>         0.0490
     24 H4         -3.7019   -0.9272    1.8392 H         1 <0>         0.0811
     25 H5         -1.5651   -2.1893    2.0274 H         1 <0>         0.0667
     26 H6          3.7306   -2.0080    0.7807 H         1 <0>         0.0638
     27 H7          1.3769    0.5349   -1.7948 H         1 <0>         0.0638
     28 H8          5.0737   -0.0728    1.4588 H         1 <0>         0.0636
     29 H9          2.7205    2.4671   -1.1106 H         1 <0>         0.0636
     30 H10        -4.0524    1.9096    1.4643 H         1 <0>         0.0247
     31 H11        -3.6171    2.5026   -0.1442 H         1 <0>         0.0247
     32 H12        -5.3155    2.4841    0.3623 H         1 <0>         0.0247
     33 H13         5.5139    2.3253    1.2760 H         1 <0>         0.1423
     34 H14         4.5575    3.3561    0.2326 H         1 <0>         0.1423
@<TRIPOS>BOND
     1    1    2 2
     2    1    3 2
     3    1    6 1
     4    1    9 1
     5    4   16 2
     6    5   11 1
     7    5   12 1
     8    5   16 am
     9    6   10 1
    10    6   21 1
    11    7   10 2
    12    7   16 1
    13    8   19 1
    14    8   33 1
    15    8   34 1
    16    9   14 ar
    17    9   15 ar
    18   10   13 1
    19   11   20 1
    20   11   22 1
    21   11   23 1
    22   12   13 2
    23   12   24 1
    24   13   25 1
    25   14   17 ar
    26   14   26 1
    27   15   18 ar
    28   15   27 1
    29   17   19 ar
    30   17   28 1
    31   18   19 ar
    32   18   29 1
    33   20   30 1
    34   20   31 1
    35   20   32 1
