@<TRIPOS>MOLECULE
DB01209
   41    43     0     0     0
SMALL
USER_CHARGES

@<TRIPOS>ATOM
      1 O1         -4.5635   -0.5256   -0.9408 O.3       1 <0>        -0.5068
      2 N1          2.5547   -1.2587    1.2238 N.3       1 <0>        -0.3262
      3 C1          0.1536   -1.2001    0.3941 C.3       1 <0>         0.0087
      4 C2          1.2572   -0.5799    1.3127 C.3       1 <0>         0.0174
      5 C3          1.3834    0.9548    1.2629 C.3       1 <0>        -0.0210
      6 C4          0.6437   -1.5705   -1.0455 C.3       1 <0>        -0.0422
      7 C5          0.0333    1.5874    1.6114 C.3       1 <0>        -0.0231
      8 C6         -1.1126   -0.3200    0.3507 C.ar      1 <0>        -0.0334
      9 C7          2.0809    1.5941    0.0486 C.3       1 <0>        -0.0485
     10 C8         -1.1446    0.9771    0.9016 C.ar      1 <0>        -0.0431
     11 C9          1.3745   -0.5516   -1.9254 C.3       1 <0>        -0.0522
     12 C10        -0.2483   -2.5589    1.0614 C.3       1 <0>        -0.0541
     13 C11         1.2795    1.9339   -1.2081 C.3       1 <0>        -0.0527
     14 C12         0.7110    0.8074   -2.0693 C.3       1 <0>        -0.0530
     15 C13        -2.2883   -0.7978   -0.2698 C.ar      1 <0>        -0.0162
     16 C14        -2.3291    1.7366    0.8441 C.ar      1 <0>        -0.0548
     17 C15        -3.4521   -0.0296   -0.3313 C.ar      1 <0>         0.1172
     18 C16        -3.4734    1.2390    0.2285 C.ar      1 <0>        -0.0199
     19 H1          0.9344   -0.7771    2.3473 H         1 <0>         0.0470
     20 H2          2.0478    1.2166    2.1031 H         1 <0>         0.0319
     21 H3         -0.2083   -1.9418   -1.6311 H         1 <0>         0.0274
     22 H4          1.3135   -2.4397   -0.9730 H         1 <0>         0.0274
     23 H5          0.0744    2.6683    1.4278 H         1 <0>         0.0316
     24 H6         -0.1451    1.4628    2.6885 H         1 <0>         0.0316
     25 H7          2.9838    1.0336   -0.2147 H         1 <0>         0.0269
     26 H8          2.4722    2.5599    0.4043 H         1 <0>         0.0269
     27 H9          1.4177   -0.9996   -2.9288 H         1 <0>         0.0266
     28 H10         2.4241   -0.4603   -1.6361 H         1 <0>         0.0266
     29 H11        -0.6976   -2.3985    2.0493 H         1 <0>         0.0239
     30 H12        -0.9780   -3.1158    0.4630 H         1 <0>         0.0239
     31 H13         0.6092   -3.2270    1.1906 H         1 <0>         0.0239
     32 H14         1.9589    2.5107   -1.8524 H         1 <0>         0.0265
     33 H15         0.4745    2.6383   -0.9673 H         1 <0>         0.0265
     34 H16        -0.3722    0.7346   -1.9440 H         1 <0>         0.0265
     35 H17         0.8288    1.1263   -3.1148 H         1 <0>         0.0265
     36 H18         2.9620   -1.1382    0.3004 H         1 <0>         0.1185
     37 H19         2.4462   -2.2612    1.3586 H         1 <0>         0.1185
     38 H20        -2.3008   -1.7869   -0.7220 H         1 <0>         0.0657
     39 H21        -2.3607    2.7313    1.2839 H         1 <0>         0.0622
     40 H22        -4.3740    1.8451    0.1912 H         1 <0>         0.0654
     41 H23        -4.3706   -1.4189   -1.2734 H         1 <0>         0.2921
@<TRIPOS>BOND
     1    1   17 1
     2    1   41 1
     3    2    4 1
     4    2   36 1
     5    2   37 1
     6    3    4 1
     7    3    6 1
     8    3    8 1
     9    3   12 1
    10    4    5 1
    11    4   19 1
    12    5    7 1
    13    5    9 1
    14    5   20 1
    15    6   11 1
    16    6   21 1
    17    6   22 1
    18    7   10 1
    19    7   23 1
    20    7   24 1
    21    8   10 ar
    22    8   15 ar
    23    9   13 1
    24    9   25 1
    25    9   26 1
    26   10   16 ar
    27   11   14 1
    28   11   27 1
    29   11   28 1
    30   12   29 1
    31   12   30 1
    32   12   31 1
    33   13   14 1
    34   13   32 1
    35   13   33 1
    36   14   34 1
    37   14   35 1
    38   15   17 ar
    39   15   38 1
    40   16   18 ar
    41   16   39 1
    42   17   18 ar
    43   18   40 1
