@<TRIPOS>MOLECULE
DB01194
   44    45     0     0     0
SMALL
USER_CHARGES

@<TRIPOS>ATOM
      1 S1         -0.6802   -2.3113    0.1292 S.o2      1 <0>         0.0675
      2 S2         -3.3500   -1.4621    1.1404 S.3       1 <0>        -0.0484
      3 S3         -5.6150    0.3634    1.4409 S.o2      1 <0>         0.0623
      4 O1         -1.2163   -3.3077   -0.7760 O.2       1 <0>        -0.1523
      5 O2         -0.2747   -2.6312    1.4819 O.2       1 <0>        -0.1523
      6 O3          4.2065   -0.8787    1.5056 O.3       1 <0>        -0.3829
      7 O4         -5.7096   -0.4846    2.6237 O.2       1 <0>        -0.1527
      8 O5         -5.7200    1.8125    1.5571 O.2       1 <0>        -0.1527
      9 N1          0.5670   -1.4054   -0.6601 N.pl3     1 <0>        -0.1742
     10 N2          0.0011    1.5458   -0.2897 N.3       1 <0>        -0.3084
     11 N3         -6.7944   -0.1761    0.3143 N.pl3     1 <0>        -0.2030
     12 C1         -0.7978    0.6593   -1.1400 C.3       1 <0>         0.0498
     13 C2          0.0852   -0.4662   -1.7357 C.3       1 <0>         0.0401
     14 C3         -1.9531    0.1462   -0.3178 C.2       1 <0>         0.0063
     15 C4         -1.9505   -1.1030    0.2644 C.2       1 <0>         0.1491
     16 C5          1.7716   -2.1703   -1.0597 C.3       1 <0>         0.0227
     17 C6         -3.1730    0.8298   -0.0200 C.2       1 <0>        -0.0214
     18 C7          2.7950   -2.1738    0.0675 C.3       1 <0>        -0.0150
     19 C8         -4.0183    0.0729    0.7661 C.2       1 <0>         0.1443
     20 C9          1.1423    2.0693   -1.0230 C.3       1 <0>        -0.0064
     21 C10         3.2445   -0.7726    0.4646 C.3       1 <0>         0.0485
     22 C11         1.9599    3.0175   -0.1625 C.3       1 <0>        -0.0526
     23 C12         4.6483    0.4003    1.9397 C.3       1 <0>         0.0364
     24 H1         -1.2128    1.2389   -1.9760 H         1 <0>         0.0524
     25 H2          0.9067   -0.0916   -2.3506 H         1 <0>         0.0463
     26 H3         -0.5221   -1.0597   -2.4348 H         1 <0>         0.0463
     27 H4          2.2303   -1.7420   -1.9580 H         1 <0>         0.0445
     28 H5          1.4960   -3.1980   -1.3214 H         1 <0>         0.0445
     29 H6         -0.5757    2.3217    0.0360 H         1 <0>         0.1225
     30 H7         -3.4159    1.8271   -0.3645 H         1 <0>         0.0646
     31 H8          2.3954   -2.6865    0.9506 H         1 <0>         0.0300
     32 H9          3.6705   -2.7598   -0.2387 H         1 <0>         0.0300
     33 H10         0.8178    2.5997   -1.9258 H         1 <0>         0.0421
     34 H11         1.8459    1.2873   -1.3161 H         1 <0>         0.0421
     35 H12         2.3940   -0.1863    0.8282 H         1 <0>         0.0560
     36 H13         3.6907   -0.2613   -0.3961 H         1 <0>         0.0560
     37 H14         1.3637    3.8821    0.1483 H         1 <0>         0.0242
     38 H15         2.3305    2.5170    0.7381 H         1 <0>         0.0242
     39 H16         2.8246    3.3889   -0.7220 H         1 <0>         0.0242
     40 H17        -6.8537   -1.1911    0.1613 H         1 <0>         0.1443
     41 H18        -6.8735    0.3585   -0.5603 H         1 <0>         0.1443
     42 H19         5.3967    0.2581    2.7240 H         1 <0>         0.0523
     43 H20         3.8135    0.9733    2.3544 H         1 <0>         0.0523
     44 H21         5.1089    0.9495    1.1126 H         1 <0>         0.0523
@<TRIPOS>BOND
     1    1    4 2
     2    1    5 2
     3    1    9 1
     4    1   15 1
     5    2   15 1
     6    2   19 1
     7    3    7 2
     8    3    8 2
     9    3   11 1
    10    3   19 1
    11    6   21 1
    12    6   23 1
    13    9   13 1
    14    9   16 1
    15   10   12 1
    16   10   20 1
    17   10   29 1
    18   11   40 1
    19   11   41 1
    20   12   13 1
    21   12   14 1
    22   12   24 1
    23   13   25 1
    24   13   26 1
    25   14   15 2
    26   14   17 1
    27   16   18 1
    28   16   27 1
    29   16   28 1
    30   17   19 2
    31   17   30 1
    32   18   21 1
    33   18   31 1
    34   18   32 1
    35   20   22 1
    36   20   33 1
    37   20   34 1
    38   21   35 1
    39   21   36 1
    40   22   37 1
    41   22   38 1
    42   22   39 1
    43   23   42 1
    44   23   43 1
    45   23   44 1
