@<TRIPOS>MOLECULE
DB01626
   25    25     0     0     0
SMALL
USER_CHARGES

@<TRIPOS>ATOM
      1 N1         -1.2948    0.2546   -0.0247 N.3       1 <0>        -0.2904
      2 C1         -0.2537    0.5614   -1.0050 C.3       1 <0>         0.0246
      3 C2          1.1263    0.3321   -0.4480 C.ar      1 <0>        -0.0333
      4 C3         -2.6178    0.5439   -0.5765 C.3       1 <0>         0.0607
      5 C4         -1.2091   -1.1449    0.3910 C.3       1 <0>        -0.0115
      6 C5          1.7842    1.3703    0.1966 C.ar      1 <0>        -0.0573
      7 C6          1.7208   -0.9144   -0.5865 C.ar      1 <0>        -0.0573
      8 C7          3.0624    1.1580    0.7127 C.ar      1 <0>        -0.0615
      9 C8          2.9990   -1.1267   -0.0701 C.ar      1 <0>        -0.0615
     10 C9          3.6699   -0.0905    0.5794 C.ar      1 <0>        -0.0617
     11 C10        -3.6659    0.2960    0.4182 C.1       1 <0>        -0.0900
     12 C11        -4.5283    0.0948    1.2291 C.1       1 <0>        -0.1179
     13 H1         -0.3311    1.6125   -1.3150 H         1 <0>         0.0476
     14 H2         -0.3808   -0.0272   -1.9246 H         1 <0>         0.0476
     15 H3         -2.6703    1.5983   -0.8751 H         1 <0>         0.0563
     16 H4         -2.8123   -0.0553   -1.4754 H         1 <0>         0.0563
     17 H5         -0.3075   -1.3411    0.9791 H         1 <0>         0.0391
     18 H6         -1.2451   -1.8371   -0.4588 H         1 <0>         0.0391
     19 H7         -2.0145   -1.4302    1.0763 H         1 <0>         0.0391
     20 H8          1.3198    2.3461    0.3079 H         1 <0>         0.0621
     21 H9          1.2177   -1.7274   -1.1023 H         1 <0>         0.0621
     22 H10         3.5846    1.9646    1.2190 H         1 <0>         0.0618
     23 H11         3.4735   -2.0979   -0.1766 H         1 <0>         0.0618
     24 H12         4.6655   -0.2557    0.9809 H         1 <0>         0.0618
     25 H13        -5.2927   -0.0841    1.9486 H         1 <0>         0.1228
@<TRIPOS>BOND
     1    1    2 1
     2    1    4 1
     3    1    5 1
     4    2    3 1
     5    2   13 1
     6    2   14 1
     7    3    6 ar
     8    3    7 ar
     9    4   11 1
    10    4   15 1
    11    4   16 1
    12    5   17 1
    13    5   18 1
    14    5   19 1
    15    6    8 ar
    16    6   20 1
    17    7    9 ar
    18    7   21 1
    19    8   10 ar
    20    8   22 1
    21    9   10 ar
    22    9   23 1
    23   10   24 1
    24   11   12 3
    25   12   25 1
