@<TRIPOS>MOLECULE
DB01322
   33    34     0     0     0
SMALL
USER_CHARGES

@<TRIPOS>ATOM
      1 O1         -1.8348   -1.9553   -0.0387 O.3       1 <0>        -0.4536
      2 O2         -4.6415    1.0731   -0.4423 O.3       1 <0>        -0.4990
      3 O3         -3.5034   -3.4899    0.0021 O.2       1 <0>        -0.2455
      4 C1         -1.4175   -0.6593   -0.5227 C.3       1 <0>         0.1287
      5 C2         -2.3461    0.4267    0.0073 C.3       1 <0>         0.0460
      6 C3         -0.0056   -0.4375   -0.0880 C.2       1 <0>        -0.0430
      7 C4          4.2484   -0.6512    1.0738 C.3       1 <0>        -0.0305
      8 C5         -3.7567    0.0302   -0.2772 C.2       1 <0>         0.1079
      9 C6          2.3772   -0.0985   -0.5162 C.2       1 <0>        -0.0294
     10 C7          5.0709    0.5009    0.4791 C.3       1 <0>        -0.0310
     11 C8          1.0100   -0.3097   -0.9421 C.2       1 <0>        -0.0554
     12 C9          2.8413   -0.7685    0.5570 C.2       1 <0>        -0.0766
     13 C10         3.2825    0.7881   -1.2317 C.2       1 <0>        -0.0588
     14 C11         4.5146    1.0719   -0.7890 C.2       1 <0>        -0.0832
     15 C12        -4.1195   -1.2535   -0.3837 C.2       1 <0>         0.0600
     16 C13        -3.1392   -2.3273   -0.1362 C.2       1 <0>         0.3357
     17 C14        -4.7457    1.8828    0.7042 C.3       1 <0>         0.0783
     18 H1         -1.4724   -0.6975   -1.6196 H         1 <0>         0.0784
     19 H2         -2.1004    1.3812   -0.4736 H         1 <0>         0.0383
     20 H3         -2.2271    0.5526    1.0912 H         1 <0>         0.0383
     21 H4          0.1581   -0.3902    0.9866 H         1 <0>         0.0609
     22 H5          4.2217   -0.5409    2.1646 H         1 <0>         0.0311
     23 H6          4.7608   -1.6007    0.8736 H         1 <0>         0.0311
     24 H7          6.0949    0.1521    0.3003 H         1 <0>         0.0310
     25 H8          5.1446    1.3118    1.2145 H         1 <0>         0.0310
     26 H9          0.8307   -0.3241   -2.0139 H         1 <0>         0.0621
     27 H10         2.2168   -1.4774    1.0963 H         1 <0>         0.0578
     28 H11         2.9259    1.2431   -2.1513 H         1 <0>         0.0620
     29 H12         5.1395    1.7577   -1.3534 H         1 <0>         0.0572
     30 H13        -5.1458   -1.5380   -0.5852 H         1 <0>         0.0722
     31 H14        -5.6029    2.5504    0.5735 H         1 <0>         0.0660
     32 H15        -3.8575    2.5100    0.8335 H         1 <0>         0.0660
     33 H16        -4.9217    1.2869    1.6072 H         1 <0>         0.0660
@<TRIPOS>BOND
     1    1    4 1
     2    1   16 1
     3    2    8 1
     4    2   17 1
     5    3   16 2
     6    4    5 1
     7    4    6 1
     8    4   18 1
     9    5    8 1
    10    5   19 1
    11    5   20 1
    12    6   11 2
    13    6   21 1
    14    7   10 1
    15    7   12 1
    16    7   22 1
    17    7   23 1
    18    8   15 2
    19    9   11 1
    20    9   12 2
    21    9   13 1
    22   10   14 1
    23   10   24 1
    24   10   25 1
    25   11   26 1
    26   12   27 1
    27   13   14 2
    28   13   28 1
    29   14   29 1
    30   15   16 1
    31   15   30 1
    32   17   31 1
    33   17   32 1
    34   17   33 1
