@<TRIPOS>MOLECULE
DB01339
   97   102     0     0     0
SMALL
USER_CHARGES

@<TRIPOS>ATOM
      1 O1         -4.4077   -2.0315   -0.0356 O.3       1 <0>        -0.4553
      2 O2          6.0082    2.0374   -0.4388 O.3       1 <0>        -0.4599
      3 O3         -3.4310   -3.7016   -1.2983 O.2       1 <0>        -0.2512
      4 O4          6.5259    2.8477    1.6617 O.2       1 <0>        -0.2512
      5 N1         -5.3835    0.5757    0.1479 N.4       1 <0>         0.2459
      6 N2          5.5504   -0.7931   -0.6318 N.3       1 <0>        -0.2959
      7 C1         -1.8072    0.5070   -0.5595 C.3       1 <0>        -0.0238
      8 C2         -2.2269   -0.8254    0.0954 C.3       1 <0>         0.0136
      9 C3         -0.4970    1.0591    0.0133 C.3       1 <0>        -0.0341
     10 C4          0.6345    0.0143   -0.2488 C.3       1 <0>        -0.0322
     11 C5          2.0428    0.5171    0.2470 C.3       1 <0>        -0.0245
     12 C6         -4.1946    0.3414   -0.7867 C.3       1 <0>         0.0193
     13 C7         -3.5683   -1.0652   -0.6348 C.3       1 <0>         0.1508
     14 C8         -3.0753    1.3550   -0.4813 C.3       1 <0>        -0.0024
     15 C9          2.3224    1.9105   -0.3896 C.3       1 <0>        -0.0319
     16 C10        -1.1406   -1.8665   -0.2182 C.3       1 <0>        -0.0435
     17 C11         0.2470   -1.4014    0.2618 C.3       1 <0>        -0.0488
     18 C12        -0.1456    2.4173   -0.6060 C.3       1 <0>        -0.0494
     19 C13         1.2077    2.9315   -0.1276 C.3       1 <0>        -0.0493
     20 C14         3.1582   -0.4772   -0.2153 C.3       1 <0>        -0.0280
     21 C15        -2.4280   -0.7541    1.6297 C.3       1 <0>        -0.0557
     22 C16         3.6898    2.4925    0.0116 C.3       1 <0>        -0.0108
     23 C17         4.4622    0.1813   -0.7068 C.3       1 <0>         0.0479
     24 C18         2.0724    0.5997    1.7967 C.3       1 <0>        -0.0590
     25 C19         4.8131    1.4483    0.0750 C.3       1 <0>         0.1188
     26 C20        -5.8753    2.0312    0.0057 C.3       1 <0>        -0.0299
     27 C21        -6.4815   -0.4552   -0.1869 C.3       1 <0>        -0.0299
     28 C22        -4.9002    0.3633    1.5843 C.3       1 <0>        -0.0409
     29 C23        -6.9496    2.1365   -1.0644 C.3       1 <0>        -0.0123
     30 C24        -7.8586    0.0939    0.1483 C.3       1 <0>        -0.0123
     31 C25        -8.1890    1.3249   -0.6932 C.3       1 <0>        -0.0434
     32 C26         5.7893   -1.1904    0.7628 C.3       1 <0>        -0.0007
     33 C27         5.2540   -1.9608   -1.4736 C.3       1 <0>        -0.0007
     34 C28        -4.2372   -3.3247   -0.4586 C.2       1 <0>         0.3044
     35 C29         6.9574   -2.1725    0.8642 C.3       1 <0>        -0.0402
     36 C30         6.4047   -2.9679   -1.4453 C.3       1 <0>        -0.0402
     37 C31         6.7331   -3.3945   -0.0191 C.3       1 <0>        -0.0507
     38 C32         6.7717    2.7095    0.4712 C.2       1 <0>         0.3043
     39 C33        -5.1886   -4.2336    0.2589 C.3       1 <0>         0.0332
     40 C34         7.9855    3.2702   -0.2059 C.3       1 <0>         0.0332
     41 H1         -1.6286    0.3266   -1.6333 H         1 <0>         0.0312
     42 H2         -0.6153    1.2043    1.0929 H         1 <0>         0.0306
     43 H3          0.7110   -0.0802   -1.3442 H         1 <0>         0.0309
     44 H4         -4.5658    0.4814   -1.8097 H         1 <0>         0.0889
     45 H5         -3.3451   -1.3770   -1.6666 H         1 <0>         0.0797
     46 H6         -3.0504    2.1271   -1.2604 H         1 <0>         0.0324
     47 H7         -3.1171    1.8860    0.4696 H         1 <0>         0.0324
     48 H8          2.3523    1.7666   -1.4809 H         1 <0>         0.0307
     49 H9         -1.3774   -2.8281    0.2521 H         1 <0>         0.0272
     50 H10        -1.0902   -2.0486   -1.2994 H         1 <0>         0.0272
     51 H11         0.3032   -1.4488    1.3511 H         1 <0>         0.0268
     52 H12         0.9793   -2.1340   -0.0977 H         1 <0>         0.0268
     53 H13        -0.9129    3.1577   -0.3522 H         1 <0>         0.0268
     54 H14        -0.1341    2.3371   -1.7006 H         1 <0>         0.0268
     55 H15         1.1522    3.1794    0.9389 H         1 <0>         0.0268
     56 H16         1.4345    3.8684   -0.6512 H         1 <0>         0.0268
     57 H17         2.7641   -1.0273   -1.0820 H         1 <0>         0.0287
     58 H18         3.2598   -1.2371    0.5597 H         1 <0>         0.0287
     59 H19        -1.4876   -0.9950    2.1384 H         1 <0>         0.0236
     60 H20        -3.0789   -1.5381    2.0218 H         1 <0>         0.0236
     61 H21        -2.5955    0.2384    2.0307 H         1 <0>         0.0236
     62 H22         3.6209    2.9956    0.9853 H         1 <0>         0.0304
     63 H23         3.9511    3.2880   -0.6994 H         1 <0>         0.0304
     64 H24         4.3492    0.4713   -1.7613 H         1 <0>         0.0499
     65 H25         1.2909    1.2521    2.1947 H         1 <0>         0.0235
     66 H26         1.9392   -0.3843    2.2573 H         1 <0>         0.0235
     67 H27         3.0236    0.9809    2.1759 H         1 <0>         0.0235
     68 H28         4.9343    1.2085    1.1353 H         1 <0>         0.0750
     69 H29        -6.2932    2.3376    0.9728 H         1 <0>         0.0815
     70 H30        -5.0420    2.7001   -0.2148 H         1 <0>         0.0815
     71 H31        -6.4154   -0.7155   -1.2492 H         1 <0>         0.0815
     72 H32        -6.3611   -1.3407    0.4386 H         1 <0>         0.0815
     73 H33        -4.7375   -0.6806    1.8043 H         1 <0>         0.0778
     74 H34        -5.7801    0.5821    2.2080 H         1 <0>         0.0778
     75 H35        -4.2018    1.1336    1.8932 H         1 <0>         0.0778
     76 H36        -7.2347    3.1850   -1.2081 H         1 <0>         0.0317
     77 H37        -6.5554    1.7901   -2.0272 H         1 <0>         0.0317
     78 H38        -8.6220   -0.6748   -0.0199 H         1 <0>         0.0317
     79 H39        -7.9135    0.3523    1.2128 H         1 <0>         0.0317
     80 H40        -8.8967    1.9528   -0.1387 H         1 <0>         0.0269
     81 H41        -8.7025    1.0231   -1.6140 H         1 <0>         0.0269
     82 H42         6.0931   -0.3433    1.3830 H         1 <0>         0.0427
     83 H43         4.9434   -1.6712    1.2584 H         1 <0>         0.0427
     84 H44         5.1027   -1.6447   -2.5129 H         1 <0>         0.0427
     85 H45         4.3508   -2.4948   -1.1564 H         1 <0>         0.0427
     86 H46         7.0903   -2.4887    1.9055 H         1 <0>         0.0278
     87 H47         7.8864   -1.6711    0.5631 H         1 <0>         0.0278
     88 H48         7.2945   -2.5214   -1.9071 H         1 <0>         0.0278
     89 H49         6.1429   -3.8480   -2.0436 H         1 <0>         0.0278
     90 H50         5.9059   -3.9913    0.3845 H         1 <0>         0.0266
     91 H51         7.6238   -4.0322   -0.0127 H         1 <0>         0.0266
     92 H52        -5.0480   -4.1387    1.3387 H         1 <0>         0.0342
     93 H53        -4.9856   -5.2698   -0.0264 H         1 <0>         0.0342
     94 H54        -6.2160   -3.9864   -0.0188 H         1 <0>         0.0342
     95 H55         8.5833    2.4577   -0.6263 H         1 <0>         0.0342
     96 H56         8.5941    3.8074    0.5271 H         1 <0>         0.0342
     97 H57         7.6830    3.9710   -0.9881 H         1 <0>         0.0342
@<TRIPOS>BOND
     1    1   13 1
     2    1   34 1
     3    2   25 1
     4    2   38 1
     5    3   34 2
     6    4   38 2
     7    5   12 1
     8    5   26 1
     9    5   27 1
    10    5   28 1
    11    6   23 1
    12    6   32 1
    13    6   33 1
    14    7    8 1
    15    7    9 1
    16    7   14 1
    17    7   41 1
    18    8   13 1
    19    8   16 1
    20    8   21 1
    21    9   10 1
    22    9   18 1
    23    9   42 1
    24   10   11 1
    25   10   17 1
    26   10   43 1
    27   11   15 1
    28   11   20 1
    29   11   24 1
    30   12   13 1
    31   12   14 1
    32   12   44 1
    33   13   45 1
    34   14   46 1
    35   14   47 1
    36   15   19 1
    37   15   22 1
    38   15   48 1
    39   16   17 1
    40   16   49 1
    41   16   50 1
    42   17   51 1
    43   17   52 1
    44   18   19 1
    45   18   53 1
    46   18   54 1
    47   19   55 1
    48   19   56 1
    49   20   23 1
    50   20   57 1
    51   20   58 1
    52   21   59 1
    53   21   60 1
    54   21   61 1
    55   22   25 1
    56   22   62 1
    57   22   63 1
    58   23   25 1
    59   23   64 1
    60   24   65 1
    61   24   66 1
    62   24   67 1
    63   25   68 1
    64   26   29 1
    65   26   69 1
    66   26   70 1
    67   27   30 1
    68   27   71 1
    69   27   72 1
    70   28   73 1
    71   28   74 1
    72   28   75 1
    73   29   31 1
    74   29   76 1
    75   29   77 1
    76   30   31 1
    77   30   78 1
    78   30   79 1
    79   31   80 1
    80   31   81 1
    81   32   35 1
    82   32   82 1
    83   32   83 1
    84   33   36 1
    85   33   84 1
    86   33   85 1
    87   34   39 1
    88   35   37 1
    89   35   86 1
    90   35   87 1
    91   36   37 1
    92   36   88 1
    93   36   89 1
    94   37   90 1
    95   37   91 1
    96   38   40 1
    97   39   92 1
    98   39   93 1
    99   39   94 1
   100   40   95 1
   101   40   96 1
   102   40   97 1
