@<TRIPOS>MOLECULE
DB01340
   61    63     0     0     0
SMALL
USER_CHARGES

@<TRIPOS>ATOM
      1 O1         -1.1241   -1.6782    1.0227 O.2       1 <0>        -0.2680
      2 O2          1.8683    2.6575    0.3193 O.3       1 <0>        -0.4610
      3 O3         -3.7411   -3.1101   -0.0360 O.co2     1 <0>        -0.5478
      4 O4         -5.4763   -3.1058    1.4551 O.co2     1 <0>        -0.5478
      5 O5          0.9865    2.0894   -1.7321 O.2       1 <0>        -0.2444
      6 N1         -3.1151   -0.5862    0.5728 N.am      1 <0>        -0.2211
      7 N2         -3.7580    0.3626   -0.2488 N.3       1 <0>        -0.2236
      8 N3          0.3414   -0.4429   -0.8581 N.4       1 <0>         0.2459
      9 C1         -1.1301   -0.1702   -0.8517 C.3       1 <0>         0.0572
     10 C2         -1.7070   -0.6906   -2.1734 C.3       1 <0>         0.0002
     11 C3         -3.8973   -1.3676    1.5413 C.3       1 <0>         0.0816
     12 C4         -4.1678   -0.2020   -1.5331 C.3       1 <0>         0.0172
     13 C5         -3.0399   -0.0400   -2.5564 C.3       1 <0>        -0.0330
     14 C6         -1.7695   -0.8781    0.3405 C.2       1 <0>         0.2780
     15 C7         -4.7934    1.1298    0.4386 C.3       1 <0>         0.0170
     16 C8         -5.0566   -0.6101    2.1803 C.3       1 <0>        -0.0264
     17 C9         -5.7982    0.2471    1.1643 C.3       1 <0>        -0.0365
     18 C10         1.1202    0.4390    0.0447 C.3       1 <0>         0.0771
     19 C11         2.4193   -0.2625    0.4677 C.3       1 <0>         0.0048
     20 C12        -4.4224   -2.6556    0.9245 C.2       1 <0>         0.0636
     21 C13         1.3147    1.8007   -0.5883 C.2       1 <0>         0.3560
     22 C14         3.4545   -0.5465   -0.6333 C.3       1 <0>        -0.0220
     23 C15         4.7172   -1.2189   -0.1601 C.ar      1 <0>        -0.0471
     24 C16         5.8044   -0.4488    0.2529 C.ar      1 <0>        -0.0586
     25 C17         4.7991   -2.6110   -0.1353 C.ar      1 <0>        -0.0586
     26 C18         2.0675    3.9988   -0.1386 C.3       1 <0>         0.0899
     27 C19         6.9736   -1.0711    0.6910 C.ar      1 <0>        -0.0615
     28 C20         5.9680   -3.2333    0.3028 C.ar      1 <0>        -0.0615
     29 C21         2.6841    4.8144    0.9777 C.3       1 <0>        -0.0306
     30 C22         7.0553   -2.4632    0.7158 C.ar      1 <0>        -0.0617
     31 H1         -1.2569    0.9147   -0.7714 H         1 <0>         0.0950
     32 H2         -1.8400   -1.7792   -2.1266 H         1 <0>         0.0325
     33 H3         -1.0102   -0.4955   -2.9987 H         1 <0>         0.0325
     34 H4         -3.2181   -1.6890    2.3422 H         1 <0>         0.0577
     35 H5         -5.0306    0.3448   -1.9352 H         1 <0>         0.0443
     36 H6         -4.4907   -1.2439   -1.4681 H         1 <0>         0.0443
     37 H7          0.4940   -1.4319   -0.6138 H         1 <0>         0.2030
     38 H8          0.7218   -0.3432   -1.8098 H         1 <0>         0.2030
     39 H9         -2.8709    1.0297   -2.7392 H         1 <0>         0.0280
     40 H10        -3.3736   -0.4635   -3.5118 H         1 <0>         0.0280
     41 H11        -5.3126    1.7970   -0.2600 H         1 <0>         0.0443
     42 H12        -4.3066    1.7948    1.1643 H         1 <0>         0.0443
     43 H13        -4.6309    0.0688    2.9334 H         1 <0>         0.0288
     44 H14        -5.7594   -1.2378    2.7378 H         1 <0>         0.0288
     45 H15        -6.3459   -0.3838    0.4546 H         1 <0>         0.0279
     46 H16        -6.5370    0.8724    1.6784 H         1 <0>         0.0279
     47 H17         0.5074    0.5819    0.9436 H         1 <0>         0.0969
     48 H18         2.1649   -1.2079    0.9664 H         1 <0>         0.0329
     49 H19         2.9052    0.3510    1.2385 H         1 <0>         0.0329
     50 H20         3.7223    0.3932   -1.1337 H         1 <0>         0.0315
     51 H21         2.9979   -1.1672   -1.4148 H         1 <0>         0.0315
     52 H22         5.7516    0.6366    0.2401 H         1 <0>         0.0620
     53 H23         3.9578   -3.2216   -0.4526 H         1 <0>         0.0620
     54 H24         2.7373    3.9924   -1.0057 H         1 <0>         0.0694
     55 H25         1.1037    4.4335   -0.4261 H         1 <0>         0.0694
     56 H26         7.8199   -0.4715    1.0131 H         1 <0>         0.0618
     57 H27         6.0317   -4.3173    0.3227 H         1 <0>         0.0618
     58 H28         2.0340    4.8151    1.8588 H         1 <0>         0.0262
     59 H29         3.6404    4.3809    1.2886 H         1 <0>         0.0262
     60 H30         2.8511    5.8478    0.6610 H         1 <0>         0.0262
     61 H31         7.9654   -2.9477    1.0572 H         1 <0>         0.0618
@<TRIPOS>BOND
     1    1   14 2
     2    2   21 1
     3    2   26 1
     4    3   20 2
     5    4   20 1
     6    5   21 2
     7    6    7 1
     8    6   11 1
     9    6   14 am
    10    7   12 1
    11    7   15 1
    12    8    9 1
    13    8   18 1
    14    8   37 1
    15    8   38 1
    16    9   10 1
    17    9   14 1
    18    9   31 1
    19   10   13 1
    20   10   32 1
    21   10   33 1
    22   11   16 1
    23   11   20 1
    24   11   34 1
    25   12   13 1
    26   12   35 1
    27   12   36 1
    28   13   39 1
    29   13   40 1
    30   15   17 1
    31   15   41 1
    32   15   42 1
    33   16   17 1
    34   16   43 1
    35   16   44 1
    36   17   45 1
    37   17   46 1
    38   18   19 1
    39   18   21 1
    40   18   47 1
    41   19   22 1
    42   19   48 1
    43   19   49 1
    44   22   23 1
    45   22   50 1
    46   22   51 1
    47   23   24 ar
    48   23   25 ar
    49   24   27 ar
    50   24   52 1
    51   25   28 ar
    52   25   53 1
    53   26   29 1
    54   26   54 1
    55   26   55 1
    56   27   30 ar
    57   27   56 1
    58   28   30 ar
    59   28   57 1
    60   29   58 1
    61   29   59 1
    62   29   60 1
    63   30   61 1
