@<TRIPOS>MOLECULE
DB01239
   39    41     0     0     0
SMALL
USER_CHARGES

@<TRIPOS>ATOM
      1 Cl1        -1.1381    4.3476    1.5678 Cl        1 <0>        -0.0835
      2 S1          3.3553    1.1838   -1.5307 S.3       1 <0>        -0.0882
      3 N1         -3.7344   -0.4539   -0.5102 N.3       1 <0>        -0.3081
      4 C1          1.1178   -0.1533    0.1513 C.2       1 <0>        -0.0125
      5 C2         -1.3889   -0.2159    0.1605 C.3       1 <0>        -0.0211
      6 C3          1.0666    1.3322    0.0889 C.ar      1 <0>        -0.0025
      7 C4          2.4094   -0.8902    0.1085 C.ar      1 <0>        -0.0039
      8 C5         -0.0350   -0.8499    0.1226 C.2       1 <0>        -0.0745
      9 C6         -2.4166   -1.0761   -0.5738 C.3       1 <0>         0.0018
     10 C7          2.0494    2.0262   -0.6424 C.ar      1 <0>         0.0205
     11 C8          3.4864   -0.3525   -0.6214 C.ar      1 <0>         0.0205
     12 C9          0.0906    2.0714    0.7802 C.ar      1 <0>        -0.0346
     13 C10         2.6041   -2.0890    0.8168 C.ar      1 <0>        -0.0530
     14 C11         2.0161    3.4275   -0.7046 C.ar      1 <0>        -0.0460
     15 C12         4.7118   -1.0343   -0.6653 C.ar      1 <0>        -0.0474
     16 C13         0.0705    3.4655    0.7172 C.ar      1 <0>         0.0416
     17 C14         3.8293   -2.7560    0.7721 C.ar      1 <0>        -0.0611
     18 C15        -4.7205   -1.2616   -1.2299 C.3       1 <0>        -0.0130
     19 C16        -4.1488   -0.2669    0.8812 C.3       1 <0>        -0.0130
     20 C17         1.0292    4.1424   -0.0282 C.ar      1 <0>        -0.0423
     21 C18         4.8803   -2.2319    0.0274 C.ar      1 <0>        -0.0607
     22 H1         -1.4393    0.7479   -0.3498 H         1 <0>         0.0320
     23 H2         -1.6614   -0.1356    1.2166 H         1 <0>         0.0320
     24 H3         -2.1090   -1.1788   -1.6231 H         1 <0>         0.0429
     25 H4         -2.4398   -2.0881   -0.1460 H         1 <0>         0.0429
     26 H5         -0.0206   -1.9376    0.1198 H         1 <0>         0.0579
     27 H6         -0.5911    1.6085    1.4859 H         1 <0>         0.0638
     28 H7          1.8103   -2.5182    1.4239 H         1 <0>         0.0624
     29 H8          2.7607    3.9788   -1.2747 H         1 <0>         0.0629
     30 H9          5.5508   -0.6393   -1.2341 H         1 <0>         0.0629
     31 H10         3.9623   -3.6830    1.3222 H         1 <0>         0.0618
     32 H11        -4.8421   -2.2571   -0.7876 H         1 <0>         0.0391
     33 H12        -4.4269   -1.3832   -2.2786 H         1 <0>         0.0391
     34 H13        -5.6968   -0.7641   -1.2352 H         1 <0>         0.0391
     35 H14        -4.0396   -1.1785    1.4799 H         1 <0>         0.0391
     36 H15        -5.2034    0.0325    0.9271 H         1 <0>         0.0391
     37 H16        -3.6081    0.5543    1.3621 H         1 <0>         0.0391
     38 H17         1.0259    5.2278   -0.0877 H         1 <0>         0.0632
     39 H18         5.8336   -2.7511   -0.0085 H         1 <0>         0.0618
@<TRIPOS>BOND
     1    1   16 1
     2    2   10 1
     3    2   11 1
     4    3    9 1
     5    3   18 1
     6    3   19 1
     7    4    6 1
     8    4    7 1
     9    4    8 2
    10    5    8 1
    11    5    9 1
    12    5   22 1
    13    5   23 1
    14    6   10 ar
    15    6   12 ar
    16    7   11 ar
    17    7   13 ar
    18    8   26 1
    19    9   24 1
    20    9   25 1
    21   10   14 ar
    22   11   15 ar
    23   12   16 ar
    24   12   27 1
    25   13   17 ar
    26   13   28 1
    27   14   20 ar
    28   14   29 1
    29   15   21 ar
    30   15   30 1
    31   16   20 ar
    32   17   21 ar
    33   17   31 1
    34   18   32 1
    35   18   33 1
    36   18   34 1
    37   19   35 1
    38   19   36 1
    39   19   37 1
    40   20   38 1
    41   21   39 1
