@<TRIPOS>MOLECULE
DB01162
   53    56     0     0     0
SMALL
USER_CHARGES

@<TRIPOS>ATOM
      1 O1          6.6800   -0.2472    1.3093 O.3       1 <0>        -0.3674
      2 O2          5.5441   -1.5285   -0.6683 O.2       1 <0>        -0.2728
      3 O3         -5.7597    2.4764    0.2168 O.3       1 <0>        -0.4914
      4 O4         -7.0589    0.0280    0.0192 O.3       1 <0>        -0.4914
      5 N1          3.4551   -0.6505   -0.1540 N.am      1 <0>        -0.2964
      6 N2          0.5639   -0.7858   -0.1916 N.pl3     1 <0>        -0.2966
      7 N3         -1.5355    0.2947   -0.0569 N.ar      1 <0>        -0.2141
      8 N4         -1.3959   -2.1012   -0.2754 N.ar      1 <0>        -0.1992
      9 N5         -3.3460   -3.4149   -0.3587 N.pl3     1 <0>        -0.3425
     10 C1          5.5013    0.3515    0.7634 C.3       1 <0>         0.1346
     11 C2          2.6300    0.3390    0.5425 C.3       1 <0>         0.0306
     12 C3          2.7425   -1.6410   -0.9565 C.3       1 <0>         0.0306
     13 C4          1.2471    0.5060   -0.0876 C.3       1 <0>         0.0307
     14 C5          1.3826   -1.9905   -0.3560 C.3       1 <0>         0.0307
     15 C6          5.9370    1.5604   -0.0427 C.3       1 <0>        -0.0159
     16 C7          4.8479   -0.6961   -0.0826 C.2       1 <0>         0.2445
     17 C8          7.3545    1.2062   -0.4237 C.3       1 <0>        -0.0266
     18 C9          7.8258    0.4440    0.7940 C.3       1 <0>         0.0487
     19 C10        -0.8262   -0.8685   -0.1743 C.ar      1 <0>         0.2201
     20 C11        -2.8782    0.2225   -0.0388 C.ar      1 <0>         0.0816
     21 C12        -3.5476   -1.0083   -0.1378 C.ar      1 <0>         0.0437
     22 C13        -2.7415   -2.1374   -0.2544 C.ar      1 <0>         0.1291
     23 C14        -3.6511    1.3751    0.0790 C.ar      1 <0>         0.0099
     24 C15        -4.9519   -1.0714   -0.1179 C.ar      1 <0>        -0.0038
     25 C16        -5.0480    1.3206    0.0995 C.ar      1 <0>         0.1635
     26 C17        -5.6993    0.0961    0.0010 C.ar      1 <0>         0.1623
     27 C18        -6.1212    3.1403   -0.9924 C.3       1 <0>         0.0790
     28 C19        -7.6842   -0.1183    1.2931 C.3       1 <0>         0.0790
     29 H1          4.8764    0.6315    1.6140 H         1 <0>         0.0693
     30 H2          3.1310    1.3113    0.5487 H         1 <0>         0.0480
     31 H3          2.5350   -0.0009    1.5809 H         1 <0>         0.0480
     32 H4          3.3497   -2.5463   -1.0633 H         1 <0>         0.0480
     33 H5          2.6203   -1.2097   -1.9577 H         1 <0>         0.0480
     34 H6          0.6831    1.2110    0.5342 H         1 <0>         0.0480
     35 H7          1.3366    0.9431   -1.0895 H         1 <0>         0.0480
     36 H8          0.8997   -2.7114   -1.0264 H         1 <0>         0.0480
     37 H9          1.5107   -2.4716    0.6211 H         1 <0>         0.0480
     38 H10         5.9436    2.4495    0.5993 H         1 <0>         0.0296
     39 H11         5.3041    1.7728   -0.9092 H         1 <0>         0.0296
     40 H12         7.3530    0.5505   -1.3020 H         1 <0>         0.0288
     41 H13         7.9771    2.0761   -0.6492 H         1 <0>         0.0288
     42 H14         8.6171   -0.2740    0.5625 H         1 <0>         0.0560
     43 H15         8.1858    1.1244    1.5733 H         1 <0>         0.0560
     44 H16        -3.1582    2.3428    0.1582 H         1 <0>         0.0677
     45 H17        -5.4873   -2.0131   -0.2027 H         1 <0>         0.0663
     46 H18        -2.7079   -4.1946   -0.4690 H         1 <0>         0.1437
     47 H19        -4.1882   -3.5951    0.1731 H         1 <0>         0.1437
     48 H20        -6.7516    2.4954   -1.6127 H         1 <0>         0.0660
     49 H21        -5.2267    3.4386   -1.5484 H         1 <0>         0.0660
     50 H22        -6.6881    4.0388   -0.7337 H         1 <0>         0.0660
     51 H23        -7.3686   -1.0519    1.7699 H         1 <0>         0.0660
     52 H24        -8.7665   -0.1512    1.1415 H         1 <0>         0.0660
     53 H25        -7.4468    0.7329    1.9390 H         1 <0>         0.0660
@<TRIPOS>BOND
     1    1   10 1
     2    1   18 1
     3    2   16 2
     4    3   25 1
     5    3   27 1
     6    4   26 1
     7    4   28 1
     8    5   11 1
     9    5   12 1
    10    5   16 am
    11    6   13 1
    12    6   14 1
    13    6   19 1
    14    7   19 ar
    15    7   20 ar
    16    8   19 ar
    17    8   22 ar
    18    9   22 1
    19    9   46 1
    20    9   47 1
    21   10   15 1
    22   10   16 1
    23   10   29 1
    24   11   13 1
    25   11   30 1
    26   11   31 1
    27   12   14 1
    28   12   32 1
    29   12   33 1
    30   13   34 1
    31   13   35 1
    32   14   36 1
    33   14   37 1
    34   15   17 1
    35   15   38 1
    36   15   39 1
    37   17   18 1
    38   17   40 1
    39   17   41 1
    40   18   42 1
    41   18   43 1
    42   20   21 ar
    43   20   23 ar
    44   21   22 ar
    45   21   24 ar
    46   23   25 ar
    47   23   44 1
    48   24   26 ar
    49   24   45 1
    50   25   26 ar
    51   27   48 1
    52   27   49 1
    53   27   50 1
    54   28   51 1
    55   28   52 1
    56   28   53 1
