@<TRIPOS>MOLECULE
DB01174
   29    30     0     0     0
SMALL
USER_CHARGES

@<TRIPOS>ATOM
      1 O1          0.8159   -0.0728   -2.4069 O.2       1 <0>        -0.2739
      2 O2          0.8244   -0.2332    2.3841 O.2       1 <0>        -0.2739
      3 O3          2.8566    3.1762    0.0964 O.2       1 <0>        -0.2520
      4 N1          1.7937    1.5524   -1.1282 N.am      1 <0>        -0.2387
      5 N2          1.7953    1.4756    1.2136 N.am      1 <0>        -0.2387
      6 C1          0.4732   -0.2179   -0.0129 C.3       1 <0>         0.1479
      7 C2          0.7781   -1.7216   -0.0635 C.3       1 <0>        -0.0293
      8 C3         -1.0175   -0.0269   -0.0045 C.ar      1 <0>        -0.0237
      9 C4          1.0416    0.4030   -1.2923 C.2       1 <0>         0.2398
     10 C5          1.0455    0.3167    1.3029 C.2       1 <0>         0.2398
     11 C6          2.2699   -1.9764   -0.0408 C.3       1 <0>        -0.0636
     12 C7         -1.5446    1.2581   -0.0359 C.ar      1 <0>        -0.0571
     13 C8         -1.8513   -1.1375    0.0342 C.ar      1 <0>        -0.0571
     14 C9          2.1872    2.1421    0.0629 C.2       1 <0>         0.3122
     15 C10        -2.9281    1.4354   -0.0284 C.ar      1 <0>        -0.0615
     16 C11        -3.2348   -0.9599    0.0415 C.ar      1 <0>        -0.0615
     17 C12        -3.7731    0.3266    0.0102 C.ar      1 <0>        -0.0617
     18 H1          0.3842   -2.1976   -0.9719 H         1 <0>         0.0280
     19 H2          0.3775   -2.2583    0.8074 H         1 <0>         0.0280
     20 H3          2.7842   -1.5280   -0.8963 H         1 <0>         0.0230
     21 H4          2.7466   -1.6135    0.8746 H         1 <0>         0.0230
     22 H5          2.4576   -3.0552   -0.0880 H         1 <0>         0.0230
     23 H6          2.1207    2.0004   -1.9799 H         1 <0>         0.1591
     24 H7          2.1240    1.8665    2.0922 H         1 <0>         0.1591
     25 H8         -0.9069    2.1364   -0.0630 H         1 <0>         0.0621
     26 H9         -1.5274   -2.1699    0.0571 H         1 <0>         0.0621
     27 H10        -3.3474    2.4370   -0.0518 H         1 <0>         0.0618
     28 H11        -3.8945   -1.8223    0.0710 H         1 <0>         0.0618
     29 H12        -4.8504    0.4647    0.0161 H         1 <0>         0.0618
@<TRIPOS>BOND
     1    1    9 2
     2    2   10 2
     3    3   14 2
     4    4    9 am
     5    4   14 am
     6    4   23 1
     7    5   10 am
     8    5   14 am
     9    5   24 1
    10    6    7 1
    11    6    8 1
    12    6    9 1
    13    6   10 1
    14    7   11 1
    15    7   18 1
    16    7   19 1
    17    8   12 ar
    18    8   13 ar
    19   11   20 1
    20   11   21 1
    21   11   22 1
    22   12   15 ar
    23   12   25 1
    24   13   16 ar
    25   13   26 1
    26   15   17 ar
    27   15   27 1
    28   16   17 ar
    29   16   28 1
    30   17   29 1
