@<TRIPOS>MOLECULE
DB01012
   48    50     0     0     0
SMALL
USER_CHARGES

@<TRIPOS>ATOM
      1 F1         -7.5630    1.6823    1.0945 F         1 <0>        -0.1659
      2 F2         -5.8059    1.7597    2.3635 F         1 <0>        -0.1659
      3 F3         -5.9892    3.1246    0.6805 F         1 <0>        -0.1659
      4 N1          0.8397   -1.7046    0.9155 N.3       1 <0>        -0.3095
      5 C1          2.3002   -1.6995    0.7318 C.3       1 <0>         0.0306
      6 C2          0.2009   -0.8740   -0.0885 C.3       1 <0>        -0.0033
      7 C3          2.8771   -0.3214    0.8365 C.ar      1 <0>        -0.0231
      8 C4         -1.3156   -0.8897    0.0963 C.3       1 <0>        -0.0364
      9 C5         -2.0064   -0.0012   -0.9414 C.3       1 <0>        -0.0265
     10 C6          3.5497    0.2878   -0.2354 C.ar      1 <0>        -0.0132
     11 C7          2.9347   -2.6770    1.7343 C.3       1 <0>        -0.0455
     12 C8          4.0720    1.5929   -0.0725 C.ar      1 <0>        -0.0176
     13 C9         -3.5063   -0.0358   -0.7953 C.ar      1 <0>        -0.0468
     14 C10         2.7218    0.3468    2.0516 C.ar      1 <0>        -0.0565
     15 C11         3.7154   -0.3697   -1.4654 C.ar      1 <0>        -0.0537
     16 C12         3.9062    2.2508    1.1574 C.ar      1 <0>        -0.0540
     17 C13         3.2353    1.6303    2.2116 C.ar      1 <0>        -0.0609
     18 C14        -4.1316    0.8824    0.0350 C.ar      1 <0>        -0.0469
     19 C15         4.7448    2.2023   -1.1442 C.ar      1 <0>        -0.0540
     20 C16        -4.2370   -0.9853   -1.4938 C.ar      1 <0>        -0.0585
     21 C17        -5.5195    0.8503    0.1699 C.ar      1 <0>         0.0551
     22 C18         4.3867    0.2507   -2.5193 C.ar      1 <0>        -0.0612
     23 C19         4.9005    1.5342   -2.3591 C.ar      1 <0>        -0.0612
     24 C20        -5.6249   -1.0176   -1.3590 C.ar      1 <0>        -0.0610
     25 C21        -6.2661   -0.0997   -0.5271 C.ar      1 <0>        -0.0501
     26 C22        -6.2056    1.8312    1.0592 C.3       1 <0>         0.4174
     27 H1          2.4774   -2.1728   -0.2329 H         1 <0>         0.0507
     28 H2          0.4418   -1.2360   -1.0958 H         1 <0>         0.0424
     29 H3          0.5240    0.1704   -0.0204 H         1 <0>         0.0424
     30 H4         -1.5710   -0.5447    1.1070 H         1 <0>         0.0281
     31 H5         -1.6885   -1.9189    0.0105 H         1 <0>         0.0281
     32 H6          0.4882   -2.6599    0.8528 H         1 <0>         0.1225
     33 H7         -1.6519    1.0337   -0.8490 H         1 <0>         0.0314
     34 H8         -1.7308   -0.3202   -1.9549 H         1 <0>         0.0314
     35 H9          4.0242   -2.7010    1.6154 H         1 <0>         0.0248
     36 H10         2.5617   -3.6954    1.5740 H         1 <0>         0.0248
     37 H11         2.7188   -2.4094    2.7747 H         1 <0>         0.0248
     38 H12         2.1978   -0.1090    2.8874 H         1 <0>         0.0621
     39 H13         3.3481   -1.3650   -1.6802 H         1 <0>         0.0624
     40 H14         4.2989    3.2546    1.3048 H         1 <0>         0.0624
     41 H15         3.1124    2.1508    3.1569 H         1 <0>         0.0618
     42 H16        -3.5498    1.6216    0.5798 H         1 <0>         0.0626
     43 H17         5.1543    3.2051   -1.0415 H         1 <0>         0.0624
     44 H18        -3.7466   -1.7056   -2.1426 H         1 <0>         0.0620
     45 H19         4.5084   -0.2674   -3.4663 H         1 <0>         0.0618
     46 H20         5.4227    2.0166   -3.1803 H         1 <0>         0.0618
     47 H21        -6.2060   -1.7576   -1.9013 H         1 <0>         0.0618
     48 H22        -7.3478   -0.1407   -0.4350 H         1 <0>         0.0623
@<TRIPOS>BOND
     1    1   26 1
     2    2   26 1
     3    3   26 1
     4    4    5 1
     5    4    6 1
     6    4   32 1
     7    5    7 1
     8    5   11 1
     9    5   27 1
    10    6    8 1
    11    6   28 1
    12    6   29 1
    13    7   10 ar
    14    7   14 ar
    15    8    9 1
    16    8   30 1
    17    8   31 1
    18    9   13 1
    19    9   33 1
    20    9   34 1
    21   10   12 ar
    22   10   15 ar
    23   11   35 1
    24   11   36 1
    25   11   37 1
    26   12   16 ar
    27   12   19 ar
    28   13   18 ar
    29   13   20 ar
    30   14   17 ar
    31   14   38 1
    32   15   22 ar
    33   15   39 1
    34   16   17 ar
    35   16   40 1
    36   17   41 1
    37   18   21 ar
    38   18   42 1
    39   19   23 ar
    40   19   43 1
    41   20   24 ar
    42   20   44 1
    43   21   25 ar
    44   21   26 1
    45   22   23 ar
    46   22   45 1
    47   23   46 1
    48   24   25 ar
    49   24   47 1
    50   25   48 1
