@<TRIPOS>MOLECULE
DB01150
   46    48     0     0     0
SMALL
USER_CHARGES

@<TRIPOS>ATOM
      1 S1         -0.3065   -0.1314   -1.2301 S.3       1 <0>        -0.1308
      2 O1         -0.3996    3.6129    1.5254 O.2       1 <0>        -0.2731
      3 O2          3.1731    2.2563   -1.8378 O.2       1 <0>        -0.2737
      4 O3         -4.0552    2.9182    1.0510 O.3       1 <0>        -0.4762
      5 O4         -3.0268    1.7348    2.7160 O.2       1 <0>        -0.2437
      6 O5          2.3659   -4.4226    0.7266 O.3       1 <0>        -0.5068
      7 N1         -1.2751    1.9592    0.0886 N.am      1 <0>        -0.2487
      8 N2          1.7847    1.7738   -0.0446 N.am      1 <0>        -0.3002
      9 N3          5.2937    0.9931   -0.8151 N.3       1 <0>        -0.3163
     10 C1         -0.5566    1.6552   -1.1359 C.3       1 <0>         0.1043
     11 C2          0.6069    2.4805   -0.5453 C.3       1 <0>         0.1284
     12 C3         -0.4033    2.8721    0.5702 C.2       1 <0>         0.2440
     13 C4         -2.4564    1.3826    0.4355 C.2       1 <0>         0.1260
     14 C5         -2.0976   -0.4900   -1.2467 C.3       1 <0>         0.0226
     15 C6         -2.9006    0.2645   -0.1885 C.2       1 <0>        -0.0094
     16 C7          2.9910    1.7203   -0.7459 C.2       1 <0>         0.2350
     17 C8         -3.1921    2.0108    1.5463 C.2       1 <0>         0.3517
     18 C9          4.0610    0.9057   -0.0272 C.3       1 <0>         0.1079
     19 C10        -4.1773   -0.3723    0.0767 C.2       1 <0>        -0.0600
     20 C11         3.6057   -0.5248    0.1752 C.ar      1 <0>        -0.0216
     21 C12        -4.5823   -1.4713   -0.5558 C.2       1 <0>        -0.0868
     22 C13         3.5185   -1.0288    1.4601 C.ar      1 <0>        -0.0532
     23 C14         3.2879   -1.2935   -0.9303 C.ar      1 <0>        -0.0532
     24 C15        -5.8968   -2.1280   -0.2889 C.3       1 <0>        -0.0465
     25 C16         3.0995   -2.3461    1.6464 C.ar      1 <0>        -0.0199
     26 C17         2.8688   -2.6108   -0.7441 C.ar      1 <0>        -0.0199
     27 C18         2.7745   -3.1372    0.5444 C.ar      1 <0>         0.1169
     28 H1         -1.0150    2.1071   -2.0236 H         1 <0>         0.0644
     29 H2          0.8796    3.3464   -1.1618 H         1 <0>         0.0622
     30 H3          1.7389    1.3054    0.8573 H         1 <0>         0.1496
     31 H4         -2.0954   -1.5683   -1.0665 H         1 <0>         0.0426
     32 H5         -2.4893   -0.2862   -2.2494 H         1 <0>         0.0426
     33 H6          4.2409    1.3911    0.9405 H         1 <0>         0.0605
     34 H7         -4.8189    0.0676    0.8348 H         1 <0>         0.0618
     35 H8         -4.0282   -1.9674   -1.3434 H         1 <0>         0.0569
     36 H9          6.0460    0.5137   -0.3210 H         1 <0>         0.1192
     37 H10         5.5840    1.9680   -0.8856 H         1 <0>         0.1192
     38 H11        -4.5699    3.3628    1.7579 H         1 <0>         0.2954
     39 H12         3.7682   -0.4222    2.3256 H         1 <0>         0.0622
     40 H13         3.3565   -0.8984   -1.9395 H         1 <0>         0.0622
     41 H14        -6.4707   -1.6139    0.4887 H         1 <0>         0.0272
     42 H15        -5.7379   -3.1616    0.0340 H         1 <0>         0.0272
     43 H16        -6.4992   -2.1422   -1.2025 H         1 <0>         0.0272
     44 H17         3.0301   -2.7442    2.6552 H         1 <0>         0.0654
     45 H18         2.6166   -3.2219   -1.6064 H         1 <0>         0.0654
     46 H19         2.3591   -4.6190    1.6792 H         1 <0>         0.2921
@<TRIPOS>BOND
     1    1   10 1
     2    1   14 1
     3    2   12 2
     4    3   16 2
     5    4   17 1
     6    4   38 1
     7    5   17 2
     8    6   27 1
     9    6   46 1
    10    7   10 1
    11    7   12 am
    12    7   13 1
    13    8   11 1
    14    8   16 am
    15    8   30 1
    16    9   18 1
    17    9   36 1
    18    9   37 1
    19   10   11 1
    20   10   28 1
    21   11   12 1
    22   11   29 1
    23   13   15 2
    24   13   17 1
    25   14   15 1
    26   14   31 1
    27   14   32 1
    28   15   19 1
    29   16   18 1
    30   18   20 1
    31   18   33 1
    32   19   21 2
    33   19   34 1
    34   20   22 ar
    35   20   23 ar
    36   21   24 1
    37   21   35 1
    38   22   25 ar
    39   22   39 1
    40   23   26 ar
    41   23   40 1
    42   24   41 1
    43   24   42 1
    44   24   43 1
    45   25   27 ar
    46   25   44 1
    47   26   27 ar
    48   26   45 1
