@<TRIPOS>MOLECULE
DB01267
   58    62     0     0     0
SMALL
USER_CHARGES

@<TRIPOS>ATOM
      1 F1        -10.3971   -0.9327   -0.2766 F         1 <0>        -0.2054
      2 O1         -6.7906    1.9679    1.0316 O.3       1 <0>        -0.3543
      3 O2          6.9306   -2.1570   -0.9569 O.3       1 <0>        -0.3841
      4 O3          3.2587    2.1519    0.3698 O.2       1 <0>        -0.2673
      5 N1         -0.8844    0.7073   -0.1139 N.3       1 <0>        -0.3020
      6 N2          5.0129    0.6281    0.2004 N.am      1 <0>        -0.2944
      7 N3         -5.4119    1.8848    0.8795 N.2       1 <0>        -0.0818
      8 N4          4.5430   -1.6889    0.2815 N.2       1 <0>        -0.2357
      9 C1         -3.7926    0.3219   -0.1016 C.3       1 <0>         0.0075
     10 C2         -2.9253    0.1018    1.1485 C.3       1 <0>        -0.0318
     11 C3         -3.0943    1.3061   -1.0541 C.3       1 <0>        -0.0318
     12 C4         -1.4960   -0.2943    0.7699 C.3       1 <0>        -0.0005
     13 C5         -1.6587    0.8663   -1.3523 C.3       1 <0>        -0.0005
     14 C6          0.4990    0.3430   -0.4192 C.3       1 <0>         0.0031
     15 C7         -5.2068    0.7381    0.2347 C.2       1 <0>         0.0945
     16 C8          1.3026    0.2355    0.8692 C.3       1 <0>        -0.0080
     17 C9          2.7263   -0.1434    0.5819 C.2       1 <0>         0.0393
     18 C10         5.9687    1.7132   -0.0399 C.3       1 <0>         0.0279
     19 C11         6.8476   -1.0600   -0.0590 C.3       1 <0>         0.1129
     20 C12         7.4189    1.3333    0.1896 C.3       1 <0>        -0.0321
     21 C13         7.7156    0.0675   -0.5835 C.3       1 <0>        -0.0182
     22 C14         5.3764   -0.7068    0.1317 C.2       1 <0>         0.1413
     23 C15        -6.3937    0.0480   -0.0514 C.ar      1 <0>         0.0447
     24 C16         3.6767    0.9944    0.3817 C.2       1 <0>         0.2576
     25 C17         3.2209   -1.3940    0.5059 C.2       1 <0>         0.0487
     26 C18        -7.3738    0.8710    0.4755 C.ar      1 <0>         0.1702
     27 C19        -6.7726   -1.1484   -0.6775 C.ar      1 <0>        -0.0464
     28 C20         2.3624   -2.6243    0.6428 C.3       1 <0>        -0.0219
     29 C21        -8.7372    0.5948    0.4305 C.ar      1 <0>         0.0192
     30 C22        -8.1386   -1.4585   -0.7411 C.ar      1 <0>        -0.0256
     31 C23        -9.1008   -0.6014   -0.1966 C.ar      1 <0>         0.1270
     32 H1         -3.8505   -0.6435   -0.6250 H         1 <0>         0.0366
     33 H2         -2.8988    1.0145    1.7591 H         1 <0>         0.0284
     34 H3         -3.3678   -0.6810    1.7772 H         1 <0>         0.0284
     35 H4         -3.6557    1.3811   -1.9937 H         1 <0>         0.0284
     36 H5         -3.0799    2.3140   -0.6181 H         1 <0>         0.0284
     37 H6         -0.9831   -0.3754    1.7305 H         1 <0>         0.0427
     38 H7         -1.4954   -1.2883    0.3036 H         1 <0>         0.0427
     39 H8         -1.6726   -0.0683   -1.9286 H         1 <0>         0.0427
     40 H9         -1.1939    1.6318   -1.9854 H         1 <0>         0.0427
     41 H10         0.9456    1.1166   -1.0573 H         1 <0>         0.0430
     42 H11         0.5403   -0.5998   -0.9809 H         1 <0>         0.0430
     43 H12         1.2583    1.1784    1.4296 H         1 <0>         0.0328
     44 H13         0.9200   -0.5181    1.5615 H         1 <0>         0.0328
     45 H14         5.7084    2.5690    0.5941 H         1 <0>         0.0493
     46 H15         5.8218    2.0343   -1.0789 H         1 <0>         0.0493
     47 H16         7.2230   -1.4013    0.9130 H         1 <0>         0.0674
     48 H17         7.6046    1.1748    1.2588 H         1 <0>         0.0283
     49 H18         8.0752    2.1458   -0.1402 H         1 <0>         0.0283
     50 H19         7.5420    0.2264   -1.6557 H         1 <0>         0.0295
     51 H20         8.7734   -0.2039   -0.4872 H         1 <0>         0.0295
     52 H21        -6.0382   -1.8238   -1.1047 H         1 <0>         0.0626
     53 H22         2.5907   -3.3333   -0.1613 H         1 <0>         0.0293
     54 H23         1.2900   -2.4240    0.5845 H         1 <0>         0.0293
     55 H24         2.5655   -3.1176    1.5992 H         1 <0>         0.0293
     56 H25         6.6208   -1.8571   -1.8287 H         1 <0>         0.2104
     57 H26        -9.4751    1.2645    0.8549 H         1 <0>         0.0684
     58 H27        -8.4545   -2.3809   -1.2218 H         1 <0>         0.0646
@<TRIPOS>BOND
     1    1   31 1
     2    2    7 1
     3    2   26 1
     4    3   19 1
     5    3   56 1
     6    4   24 2
     7    5   12 1
     8    5   13 1
     9    5   14 1
    10    6   18 1
    11    6   22 1
    12    6   24 am
    13    7   15 2
    14    8   22 2
    15    8   25 1
    16    9   10 1
    17    9   11 1
    18    9   15 1
    19    9   32 1
    20   10   12 1
    21   10   33 1
    22   10   34 1
    23   11   13 1
    24   11   35 1
    25   11   36 1
    26   12   37 1
    27   12   38 1
    28   13   39 1
    29   13   40 1
    30   14   16 1
    31   14   41 1
    32   14   42 1
    33   15   23 1
    34   16   17 1
    35   16   43 1
    36   16   44 1
    37   17   24 1
    38   17   25 2
    39   18   20 1
    40   18   45 1
    41   18   46 1
    42   19   21 1
    43   19   22 1
    44   19   47 1
    45   20   21 1
    46   20   48 1
    47   20   49 1
    48   21   50 1
    49   21   51 1
    50   23   26 ar
    51   23   27 ar
    52   25   28 1
    53   26   29 ar
    54   27   30 ar
    55   27   52 1
    56   28   53 1
    57   28   54 1
    58   28   55 1
    59   29   31 ar
    60   29   57 1
    61   30   31 ar
    62   30   58 1
