@<TRIPOS>MOLECULE
DB01179
   52    56     0     0     0
SMALL
USER_CHARGES

@<TRIPOS>ATOM
      1 O1         -0.3018    4.1053    0.0506 O.3       1 <0>        -0.4640
      2 O2          2.7296    1.7223    2.2413 O.3       1 <0>        -0.3868
      3 O3         -1.2528    3.1947   -1.8394 O.2       1 <0>        -0.2505
      4 O4          3.7720   -3.0675   -1.6535 O.3       1 <0>        -0.4526
      5 O5          5.2310   -2.2451    0.0775 O.3       1 <0>        -0.4526
      6 O6         -1.6296   -1.7871    2.0839 O.3       1 <0>        -0.4913
      7 O7         -4.0458   -0.3119   -1.7792 O.3       1 <0>        -0.4913
      8 O8         -3.9903   -1.6581    0.6400 O.3       1 <0>        -0.4885
      9 C1          1.1387    2.3691    0.5737 C.3       1 <0>         0.0372
     10 C2          0.7994    2.2705   -0.8978 C.3       1 <0>         0.0757
     11 C3          0.6843    0.8074   -1.3420 C.3       1 <0>         0.0233
     12 C4          2.5467    1.8564    0.8340 C.3       1 <0>         0.0872
     13 C5          1.9352    0.0376   -0.8954 C.ar      1 <0>        -0.0299
     14 C6          0.8682    3.8301    0.8442 C.3       1 <0>         0.0987
     15 C7          2.7930    0.5210    0.1432 C.ar      1 <0>        -0.0113
     16 C8         -0.3843    3.1990   -0.9825 C.2       1 <0>         0.3116
     17 C9         -0.5572    0.1526   -0.8151 C.ar      1 <0>        -0.0320
     18 C10         2.2271   -1.1835   -1.5351 C.ar      1 <0>        -0.0120
     19 C11         3.9356   -0.2208    0.4988 C.ar      1 <0>        -0.0102
     20 C12         3.3489   -1.8804   -1.1401 C.ar      1 <0>         0.1665
     21 C13         4.1793   -1.4121   -0.1528 C.ar      1 <0>         0.1666
     22 C14        -1.7376    0.2241   -1.5471 C.ar      1 <0>        -0.0123
     23 C15        -0.5188   -0.5207    0.4014 C.ar      1 <0>        -0.0123
     24 C16        -1.6740   -1.1297    0.8915 C.ar      1 <0>         0.1654
     25 C17        -2.8928   -0.3846   -1.0571 C.ar      1 <0>         0.1654
     26 C18        -2.8613   -1.0617    0.1622 C.ar      1 <0>         0.2035
     27 C19         4.9647   -3.2940   -0.8755 C.3       1 <0>         0.2332
     28 C20        -1.9178   -1.0253    3.2548 C.3       1 <0>         0.0790
     29 C21        -4.9050    0.7961   -1.5186 C.3       1 <0>         0.0790
     30 C22        -4.2148   -3.0145    0.2625 C.3       1 <0>         0.0791
     31 H1          0.4191    1.8139    1.1887 H         1 <0>         0.0370
     32 H2          1.5931    2.7500   -1.4924 H         1 <0>         0.0427
     33 H3          0.6607    0.7895   -2.4409 H         1 <0>         0.0405
     34 H4          3.2897    2.5739    0.4657 H         1 <0>         0.0648
     35 H5          0.6448    4.0220    1.8977 H         1 <0>         0.0701
     36 H6          1.6764    4.4937    0.5189 H         1 <0>         0.0701
     37 H7          1.5877   -1.5694   -2.3230 H         1 <0>         0.0658
     38 H8          4.6181    0.1325    1.2655 H         1 <0>         0.0659
     39 H9          2.2003    0.9649    2.5453 H         1 <0>         0.2102
     40 H10        -1.7668    0.7312   -2.5079 H         1 <0>         0.0658
     41 H11         0.3770   -0.5901    1.0099 H         1 <0>         0.0658
     42 H12         4.8564   -4.2410   -0.3343 H         1 <0>         0.1166
     43 H13         5.8190   -3.3739   -1.5575 H         1 <0>         0.1166
     44 H14        -1.1910   -0.2154    3.3733 H         1 <0>         0.0660
     45 H15        -1.8470   -1.6887    4.1211 H         1 <0>         0.0660
     46 H16        -2.9321   -0.6165    3.2087 H         1 <0>         0.0660
     47 H17        -5.7806    0.7112   -2.1681 H         1 <0>         0.0660
     48 H18        -4.3938    1.7381   -1.7411 H         1 <0>         0.0660
     49 H19        -5.2398    0.7874   -0.4765 H         1 <0>         0.0660
     50 H20        -5.1506   -3.3468    0.7204 H         1 <0>         0.0660
     51 H21        -3.4030   -3.6542    0.6229 H         1 <0>         0.0660
     52 H22        -4.3073   -3.1018   -0.8246 H         1 <0>         0.0660
@<TRIPOS>BOND
     1    1   14 1
     2    1   16 1
     3    2   12 1
     4    2   39 1
     5    3   16 2
     6    4   20 1
     7    4   27 1
     8    5   21 1
     9    5   27 1
    10    6   24 1
    11    6   28 1
    12    7   25 1
    13    7   29 1
    14    8   26 1
    15    8   30 1
    16    9   10 1
    17    9   12 1
    18    9   14 1
    19    9   31 1
    20   10   11 1
    21   10   16 1
    22   10   32 1
    23   11   13 1
    24   11   17 1
    25   11   33 1
    26   12   15 1
    27   12   34 1
    28   13   15 ar
    29   13   18 ar
    30   14   35 1
    31   14   36 1
    32   15   19 ar
    33   17   22 ar
    34   17   23 ar
    35   18   20 ar
    36   18   37 1
    37   19   21 ar
    38   19   38 1
    39   20   21 ar
    40   22   25 ar
    41   22   40 1
    42   23   24 ar
    43   23   41 1
    44   24   26 ar
    45   25   26 ar
    46   27   42 1
    47   27   43 1
    48   28   44 1
    49   28   45 1
    50   28   46 1
    51   29   47 1
    52   29   48 1
    53   29   49 1
    54   30   50 1
    55   30   51 1
    56   30   52 1
