@<TRIPOS>MOLECULE
DB01611
   49    50     0     0     0
SMALL
USER_CHARGES

@<TRIPOS>ATOM
      1 Cl1         5.3722   -2.7328    1.9130 Cl        1 <0>        -0.0835
      2 O1          0.6479   -3.2351   -0.1690 O.3       1 <0>        -0.3937
      3 N1         -2.2028   -0.9107    0.0886 N.3       1 <0>        -0.3004
      4 N2          1.2504    2.2575   -0.1124 N.pl3     1 <0>        -0.3407
      5 N3          3.0482   -0.9024   -2.2096 N.ar      1 <0>        -0.2548
      6 C1         -1.1227    1.7623   -0.4512 C.3       1 <0>        -0.0337
      7 C2         -1.3409    1.2115    0.9635 C.3       1 <0>        -0.0385
      8 C3         -0.0211    2.8295   -0.5040 C.3       1 <0>         0.0179
      9 C4         -2.4869    0.2007    0.9891 C.3       1 <0>        -0.0010
     10 C5         -0.9412   -1.5587    0.4518 C.3       1 <0>         0.0221
     11 C6         -0.3413    3.9905    0.4318 C.3       1 <0>        -0.0467
     12 C7         -3.2971   -1.8829    0.1086 C.3       1 <0>        -0.0039
     13 C8          1.8544    1.2068   -0.7793 C.ar      1 <0>         0.0380
     14 C9         -0.5886   -2.6463   -0.5502 C.3       1 <0>         0.0569
     15 C10        -4.6051   -1.2461   -0.3292 C.3       1 <0>        -0.0524
     16 C11         2.6955    0.2661   -0.1316 C.ar      1 <0>         0.0213
     17 C12         1.6348    1.0542   -2.1562 C.ar      1 <0>        -0.0221
     18 C13         3.2729   -0.7752   -0.8881 C.ar      1 <0>         0.0741
     19 C14         2.9516    0.3687    1.2462 C.ar      1 <0>        -0.0494
     20 C15         2.2436    0.0032   -2.8116 C.ar      1 <0>         0.0300
     21 C16         4.0946   -1.6854   -0.2290 C.ar      1 <0>        -0.0173
     22 C17         3.7775   -0.5555    1.8797 C.ar      1 <0>        -0.0426
     23 C18         4.3495   -1.5837    1.1410 C.ar      1 <0>         0.0430
     24 H1         -0.8996    0.9532   -1.1531 H         1 <0>         0.0283
     25 H2         -2.0597    2.2135   -0.8039 H         1 <0>         0.0283
     26 H3         -0.4231    0.8268    1.4163 H         1 <0>         0.0278
     27 H4         -1.6542    2.0301    1.6233 H         1 <0>         0.0278
     28 H5          0.0357    3.2413   -1.5183 H         1 <0>         0.0495
     29 H6         -2.6407   -0.1450    2.0196 H         1 <0>         0.0427
     30 H7         -3.3903    0.7417    0.6878 H         1 <0>         0.0427
     31 H8          1.6007    2.5084    0.8033 H         1 <0>         0.1464
     32 H9         -0.9773   -1.9766    1.4670 H         1 <0>         0.0449
     33 H10        -0.0909   -0.8744    0.4357 H         1 <0>         0.0449
     34 H11        -0.2635    3.7199    1.4901 H         1 <0>         0.0247
     35 H12         0.3706    4.8085    0.2698 H         1 <0>         0.0247
     36 H13        -1.3452    4.3853    0.2445 H         1 <0>         0.0247
     37 H14        -3.4198   -2.3435    1.0968 H         1 <0>         0.0424
     38 H15        -3.1274   -2.6868   -0.6120 H         1 <0>         0.0424
     39 H16        -1.3051   -3.4687   -0.5878 H         1 <0>         0.0570
     40 H17        -0.4720   -2.2369   -1.5588 H         1 <0>         0.0570
     41 H18        -5.0352   -0.6005    0.4424 H         1 <0>         0.0242
     42 H19        -4.4865   -0.6678   -1.2521 H         1 <0>         0.0242
     43 H20        -5.3462   -2.0287   -0.5280 H         1 <0>         0.0242
     44 H21         1.0195    1.7366   -2.7317 H         1 <0>         0.0651
     45 H22         2.5207    1.1473    1.8678 H         1 <0>         0.0625
     46 H23         2.1008   -0.1461   -3.8768 H         1 <0>         0.0830
     47 H24         4.5476   -2.4958   -0.7988 H         1 <0>         0.0653
     48 H25         3.9628   -0.4624    2.9465 H         1 <0>         0.0632
     49 H26         0.5328   -3.6157    0.7184 H         1 <0>         0.2095
@<TRIPOS>BOND
     1    1   23 1
     2    2   14 1
     3    2   49 1
     4    3    9 1
     5    3   10 1
     6    3   12 1
     7    4    8 1
     8    4   13 1
     9    4   31 1
    10    5   18 ar
    11    5   20 ar
    12    6    7 1
    13    6    8 1
    14    6   24 1
    15    6   25 1
    16    7    9 1
    17    7   26 1
    18    7   27 1
    19    8   11 1
    20    8   28 1
    21    9   29 1
    22    9   30 1
    23   10   14 1
    24   10   32 1
    25   10   33 1
    26   11   34 1
    27   11   35 1
    28   11   36 1
    29   12   15 1
    30   12   37 1
    31   12   38 1
    32   13   16 ar
    33   13   17 ar
    34   14   39 1
    35   14   40 1
    36   15   41 1
    37   15   42 1
    38   15   43 1
    39   16   18 ar
    40   16   19 ar
    41   17   20 ar
    42   17   44 1
    43   18   21 ar
    44   19   22 ar
    45   19   45 1
    46   20   46 1
    47   21   23 ar
    48   21   47 1
    49   22   23 ar
    50   22   48 1
