@<TRIPOS>MOLECULE
DB01242
   45    47     0     0     0
SMALL
USER_CHARGES

@<TRIPOS>ATOM
      1 Cl1        -1.8735    4.7680   -1.9462 Cl        1 <0>        -0.0835
      2 N1          0.6427    0.3881   -0.9449 N.pl3     1 <0>        -0.2995
      3 N2         -2.8617   -2.0118    0.0191 N.3       1 <0>        -0.3083
      4 C1         -0.1506   -0.1969   -2.0377 C.3       1 <0>         0.0184
      5 C2          0.2458    1.6611   -0.4500 C.ar      1 <0>         0.0385
      6 C3          1.8102   -0.3517   -0.6243 C.ar      1 <0>         0.0372
      7 C4          1.4187    1.4439    1.8722 C.3       1 <0>        -0.0219
      8 C5          1.3485   -0.0741    1.8380 C.3       1 <0>        -0.0219
      9 C6          0.6170    2.1752    0.8163 C.ar      1 <0>        -0.0256
     10 C7          2.1854   -0.5979    0.7069 C.ar      1 <0>        -0.0257
     11 C8         -1.5332   -0.6151   -1.5383 C.3       1 <0>        -0.0240
     12 C9         -1.5163   -1.6173   -0.3799 C.3       1 <0>        -0.0003
     13 C10        -0.5346    2.5157   -1.2748 C.ar      1 <0>        -0.0217
     14 C11         2.6324   -0.8769   -1.6451 C.ar      1 <0>        -0.0401
     15 C12         0.2336    3.4905    1.1799 C.ar      1 <0>        -0.0554
     16 C13         3.3417   -1.3458    0.9925 C.ar      1 <0>        -0.0568
     17 C14        -0.9198    3.8019   -0.8889 C.ar      1 <0>         0.0428
     18 C15         3.7800   -1.6168   -1.3543 C.ar      1 <0>        -0.0600
     19 C16        -0.5298    4.2937    0.3417 C.ar      1 <0>        -0.0430
     20 C17         4.1345   -1.8524   -0.0332 C.ar      1 <0>        -0.0614
     21 C18        -3.6126   -0.8563    0.5137 C.3       1 <0>        -0.0130
     22 C19        -2.8107   -3.0588    1.0410 C.3       1 <0>        -0.0130
     23 H1         -0.2029    0.4504   -2.9194 H         1 <0>         0.0468
     24 H2          0.2929   -1.1241   -2.4240 H         1 <0>         0.0468
     25 H3          2.4604    1.7864    1.8116 H         1 <0>         0.0317
     26 H4          1.0419    1.7490    2.8580 H         1 <0>         0.0317
     27 H5          1.7441   -0.4568    2.7880 H         1 <0>         0.0317
     28 H6          0.3203   -0.4338    1.7868 H         1 <0>         0.0317
     29 H7         -2.0778   -1.0579   -2.3829 H         1 <0>         0.0293
     30 H8         -2.0878    0.2856   -1.2626 H         1 <0>         0.0293
     31 H9         -0.9882   -1.2022    0.4762 H         1 <0>         0.0427
     32 H10        -0.9565   -2.5025   -0.7076 H         1 <0>         0.0427
     33 H11        -0.8491    2.2070   -2.2678 H         1 <0>         0.0651
     34 H12         2.4106   -0.6853   -2.6932 H         1 <0>         0.0636
     35 H13         0.5310    3.8945    2.1466 H         1 <0>         0.0621
     36 H14         3.6321   -1.5375    2.0227 H         1 <0>         0.0621
     37 H15         4.3974   -2.0006   -2.1611 H         1 <0>         0.0618
     38 H16        -0.8092    5.2923    0.6650 H         1 <0>         0.0632
     39 H17         5.0263   -2.4264    0.1994 H         1 <0>         0.0618
     40 H18        -3.8769   -0.1655   -0.2925 H         1 <0>         0.0391
     41 H19        -3.0725   -0.3084    1.2945 H         1 <0>         0.0391
     42 H20        -4.5722   -1.1783    0.9365 H         1 <0>         0.0391
     43 H21        -3.8212   -3.3927    1.3021 H         1 <0>         0.0391
     44 H22        -2.3114   -2.7194    1.9559 H         1 <0>         0.0391
     45 H23        -2.2791   -3.9398    0.6641 H         1 <0>         0.0391
@<TRIPOS>BOND
     1    1   17 1
     2    2    4 1
     3    2    5 1
     4    2    6 1
     5    3   12 1
     6    3   21 1
     7    3   22 1
     8    4   11 1
     9    4   23 1
    10    4   24 1
    11    5    9 ar
    12    5   13 ar
    13    6   10 ar
    14    6   14 ar
    15    7    8 1
    16    7    9 1
    17    7   25 1
    18    7   26 1
    19    8   10 1
    20    8   27 1
    21    8   28 1
    22    9   15 ar
    23   10   16 ar
    24   11   12 1
    25   11   29 1
    26   11   30 1
    27   12   31 1
    28   12   32 1
    29   13   17 ar
    30   13   33 1
    31   14   18 ar
    32   14   34 1
    33   15   19 ar
    34   15   35 1
    35   16   20 ar
    36   16   36 1
    37   17   19 ar
    38   18   20 ar
    39   18   37 1
    40   19   38 1
    41   20   39 1
    42   21   40 1
    43   21   41 1
    44   21   42 1
    45   22   43 1
    46   22   44 1
    47   22   45 1
