@<TRIPOS>MOLECULE
DB01320
   40    42     0     0     0
SMALL
USER_CHARGES

@<TRIPOS>ATOM
      1 P1          5.2684    0.2620   -0.2452 P.3       1 <0>         0.4739
      2 O1          0.7409   -0.2867   -1.6085 O.2       1 <0>        -0.2719
      3 O2          3.6957    0.3277    0.1295 O.3       1 <0>        -0.2669
      4 O3          1.7210   -0.6719    2.8627 O.2       1 <0>        -0.2521
      5 O4          5.8706   -0.8029    0.8136 O.3       1 <0>        -0.3026
      6 O5          5.2834   -0.5601   -1.6373 O.3       1 <0>        -0.3026
      7 O6          5.9802    1.5826   -0.2807 O.2       1 <0>        -0.2275
      8 N1         -0.2482   -0.1948    1.7173 N.am      1 <0>        -0.2775
      9 N2          1.5899   -0.5871    0.5317 N.am      1 <0>        -0.1990
     10 C1         -0.7333   -0.0561    0.3465 C.3       1 <0>         0.1637
     11 C2          0.6006   -0.3214   -0.3906 C.2       1 <0>         0.2575
     12 C3         -1.2056    1.3634    0.0086 C.ar      1 <0>        -0.0108
     13 C4         -1.8091   -1.1220    0.1149 C.ar      1 <0>        -0.0108
     14 C5          1.1055   -0.5081    1.8174 C.2       1 <0>         0.3117
     15 C6          2.9645   -0.8835    0.1804 C.3       1 <0>         0.1356
     16 C7         -1.6291    1.6722   -1.2862 C.ar      1 <0>        -0.0557
     17 C8         -3.0199   -1.0588    0.8087 C.ar      1 <0>        -0.0557
     18 C9         -1.2134    2.3531    0.9942 C.ar      1 <0>        -0.0557
     19 C10        -1.5834   -2.1611   -0.7906 C.ar      1 <0>        -0.0557
     20 C11        -2.0582    2.9634   -1.5936 C.ar      1 <0>        -0.0614
     21 C12        -3.9994   -2.0294    0.5981 C.ar      1 <0>        -0.0614
     22 C13        -1.6427    3.6443    0.6869 C.ar      1 <0>        -0.0614
     23 C14        -2.5628   -3.1318   -1.0013 C.ar      1 <0>        -0.0614
     24 C15        -2.0650    3.9493   -0.6071 C.ar      1 <0>        -0.0617
     25 C16        -3.7707   -3.0658   -0.3069 C.ar      1 <0>        -0.0617
     26 H1         -0.8423   -0.0896    2.5346 H         1 <0>         0.1519
     27 H2          2.9880   -1.3735   -0.7971 H         1 <0>         0.0782
     28 H3          3.3913   -1.5395    0.9447 H         1 <0>         0.0782
     29 H4         -1.6378    0.9181   -2.0685 H         1 <0>         0.0621
     30 H5         -3.2152   -0.2600    1.5193 H         1 <0>         0.0621
     31 H6         -0.8941    2.1603    2.0135 H         1 <0>         0.0621
     32 H7         -0.6596   -2.2673   -1.3473 H         1 <0>         0.0621
     33 H8         -2.3885    3.2007   -2.6006 H         1 <0>         0.0618
     34 H9         -4.9398   -1.9785    1.1392 H         1 <0>         0.0618
     35 H10        -1.6484    4.4124    1.4546 H         1 <0>         0.0618
     36 H11        -2.3845   -3.9408   -1.7038 H         1 <0>         0.0618
     37 H12        -2.3995    4.9545   -0.8463 H         1 <0>         0.0618
     38 H13        -4.5330   -3.8220   -0.4703 H         1 <0>         0.0618
     39 H14         6.8391   -0.9573    0.8323 H         1 <0>         0.2220
     40 H15         5.0443   -0.0938   -2.4665 H         1 <0>         0.2220
@<TRIPOS>BOND
     1    1    3 1
     2    1    5 1
     3    1    6 1
     4    1    7 2
     5    2   11 2
     6    3   15 1
     7    4   14 2
     8    5   39 1
     9    6   40 1
    10    8   10 1
    11    8   14 am
    12    8   26 1
    13    9   11 am
    14    9   14 am
    15    9   15 1
    16   10   11 1
    17   10   12 1
    18   10   13 1
    19   12   16 ar
    20   12   18 ar
    21   13   17 ar
    22   13   19 ar
    23   15   27 1
    24   15   28 1
    25   16   20 ar
    26   16   29 1
    27   17   21 ar
    28   17   30 1
    29   18   22 ar
    30   18   31 1
    31   19   23 ar
    32   19   32 1
    33   20   24 ar
    34   20   33 1
    35   21   25 ar
    36   21   34 1
    37   22   24 ar
    38   22   35 1
    39   23   25 ar
    40   23   36 1
    41   24   37 1
    42   25   38 1
