@<TRIPOS>MOLECULE
DB01621
   65    68     0     0     0
SMALL
USER_CHARGES

@<TRIPOS>ATOM
      1 S1          5.2830   -0.4955    1.7874 S.3       1 <0>        -0.0857
      2 S2         -0.1532   -3.5131    0.6668 S.o2      1 <0>         0.0604
      3 O1         -7.2992   -0.5006    1.3547 O.3       1 <0>        -0.3950
      4 O2         -0.1992   -4.6723    1.5513 O.2       1 <0>        -0.1529
      5 O3         -1.2460   -2.5486    0.7279 O.2       1 <0>        -0.1529
      6 N1         -1.4139    1.9047   -0.3796 N.3       1 <0>        -0.3022
      7 N2          2.7148    0.8232    0.6345 N.pl3     1 <0>        -0.2982
      8 N3          0.0136   -4.0639   -0.9648 N.pl3     1 <0>        -0.1827
      9 C1         -4.2281    1.3003    0.1779 C.3       1 <0>        -0.0367
     10 C2         -3.5224    2.5338    0.7514 C.3       1 <0>        -0.0372
     11 C3         -3.1968    0.2081   -0.1254 C.3       1 <0>        -0.0372
     12 C4         -2.3770    2.9908   -0.1543 C.3       1 <0>        -0.0009
     13 C5         -2.0618    0.7421   -1.0017 C.3       1 <0>        -0.0009
     14 C6         -5.3032    0.7896    1.1331 C.3       1 <0>        -0.0268
     15 C7         -0.2994    2.3714   -1.2039 C.3       1 <0>         0.0003
     16 C8          0.9775    1.5638   -0.9510 C.3       1 <0>        -0.0240
     17 C9         -6.3232   -0.0747    0.4140 C.3       1 <0>         0.0445
     18 C10         1.4605    1.5750    0.4990 C.3       1 <0>         0.0185
     19 C11         2.6182   -0.5615    0.9238 C.ar      1 <0>         0.0497
     20 C12         3.9247    1.5240    0.3988 C.ar      1 <0>         0.0479
     21 C13         3.7223   -1.2766    1.4281 C.ar      1 <0>         0.0342
     22 C14         5.1584    1.0155    0.8514 C.ar      1 <0>         0.0341
     23 C15         1.4336   -1.2935    0.6890 C.ar      1 <0>        -0.0129
     24 C16         1.3424   -2.6613    0.9615 C.ar      1 <0>         0.1073
     25 C17         3.9581    2.7359   -0.3254 C.ar      1 <0>        -0.0393
     26 C18         3.6235   -2.6518    1.7054 C.ar      1 <0>        -0.0443
     27 C19         2.4376   -3.3404    1.4733 C.ar      1 <0>        -0.0342
     28 C20         6.3563    1.7106    0.6082 C.ar      1 <0>        -0.0462
     29 C21         5.1522    3.4200   -0.5687 C.ar      1 <0>        -0.0599
     30 C22         6.3521    2.9085   -0.0988 C.ar      1 <0>        -0.0606
     31 C23         0.8584   -5.2621   -1.2014 C.3       1 <0>         0.0086
     32 C24         0.1983   -3.0365   -2.0211 C.3       1 <0>         0.0086
     33 H1         -4.7024    1.6035   -0.7659 H         1 <0>         0.0302
     34 H2         -3.1287    2.3086    1.7516 H         1 <0>         0.0280
     35 H3         -4.2391    3.3554    0.8693 H         1 <0>         0.0280
     36 H4         -3.6691   -0.6378   -0.6369 H         1 <0>         0.0280
     37 H5         -2.7769   -0.1789    0.8121 H         1 <0>         0.0280
     38 H6         -1.8791    3.8358    0.3370 H         1 <0>         0.0427
     39 H7         -2.7814    3.3582   -1.1067 H         1 <0>         0.0427
     40 H8         -2.4584    0.9981   -1.9932 H         1 <0>         0.0427
     41 H9         -1.3411   -0.0688   -1.1425 H         1 <0>         0.0427
     42 H10        -5.8365    1.6347    1.5881 H         1 <0>         0.0290
     43 H11        -4.8624    0.2379    1.9731 H         1 <0>         0.0290
     44 H12        -0.5513    2.3633   -2.2723 H         1 <0>         0.0427
     45 H13        -0.0584    3.4145   -0.9585 H         1 <0>         0.0427
     46 H14         0.8257    0.5391   -1.3051 H         1 <0>         0.0293
     47 H15         1.7416    1.9507   -1.6321 H         1 <0>         0.0293
     48 H16        -6.8287    0.4877   -0.3775 H         1 <0>         0.0557
     49 H17        -5.8617   -0.9655   -0.0215 H         1 <0>         0.0557
     50 H18         1.5871    2.6090    0.8475 H         1 <0>         0.0468
     51 H19         0.6929    1.1792    1.1764 H         1 <0>         0.0468
     52 H20        -7.9417   -1.0477    0.8715 H         1 <0>         0.2094
     53 H21         0.5478   -0.8083    0.2970 H         1 <0>         0.0656
     54 H22         3.0625    3.2181   -0.7004 H         1 <0>         0.0636
     55 H23         4.4728   -3.2024    2.1050 H         1 <0>         0.0630
     56 H24         2.3957   -4.4034    1.6916 H         1 <0>         0.0637
     57 H25         7.3080    1.3247    0.9680 H         1 <0>         0.0629
     58 H26         5.1381    4.3560   -1.1197 H         1 <0>         0.0618
     59 H27         7.2821    3.4379   -0.2818 H         1 <0>         0.0618
     60 H28         1.9185   -5.0156   -1.0976 H         1 <0>         0.0408
     61 H29         0.6825   -5.6452   -2.2117 H         1 <0>         0.0408
     62 H30         0.5960   -6.0619   -0.5037 H         1 <0>         0.0408
     63 H31        -0.4707   -2.1891   -1.8544 H         1 <0>         0.0408
     64 H32        -0.0601   -3.4636   -2.9954 H         1 <0>         0.0408
     65 H33         1.2344   -2.6885   -2.0527 H         1 <0>         0.0408
@<TRIPOS>BOND
     1    1   21 1
     2    1   22 1
     3    2    4 2
     4    2    5 2
     5    2    8 1
     6    2   24 1
     7    3   17 1
     8    3   52 1
     9    6   12 1
    10    6   13 1
    11    6   15 1
    12    7   18 1
    13    7   19 1
    14    7   20 1
    15    8   31 1
    16    8   32 1
    17    9   10 1
    18    9   11 1
    19    9   14 1
    20    9   33 1
    21   10   12 1
    22   10   34 1
    23   10   35 1
    24   11   13 1
    25   11   36 1
    26   11   37 1
    27   12   38 1
    28   12   39 1
    29   13   40 1
    30   13   41 1
    31   14   17 1
    32   14   42 1
    33   14   43 1
    34   15   16 1
    35   15   44 1
    36   15   45 1
    37   16   18 1
    38   16   46 1
    39   16   47 1
    40   17   48 1
    41   17   49 1
    42   18   50 1
    43   18   51 1
    44   19   21 ar
    45   19   23 ar
    46   20   22 ar
    47   20   25 ar
    48   21   26 ar
    49   22   28 ar
    50   23   24 ar
    51   23   53 1
    52   24   27 ar
    53   25   29 ar
    54   25   54 1
    55   26   27 ar
    56   26   55 1
    57   27   56 1
    58   28   30 ar
    59   28   57 1
    60   29   30 ar
    61   29   58 1
    62   30   59 1
    63   31   60 1
    64   31   61 1
    65   31   62 1
    66   32   63 1
    67   32   64 1
    68   32   65 1
