@<TRIPOS>MOLECULE
DB01076
   76    79     0     0     0
SMALL
USER_CHARGES

@<TRIPOS>ATOM
      1 F1         -3.8316   -5.4747   -0.1096 F         1 <0>        -0.2055
      2 O1         -3.5483    2.0859    2.6225 O.3       1 <0>        -0.3916
      3 O2         -5.7680    0.1879   -0.5516 O.3       1 <0>        -0.3912
      4 O3          4.0702    0.0353    1.5825 O.2       1 <0>        -0.2698
      5 O4         -5.9481    2.7930   -4.0836 O.3       1 <0>        -0.4806
      6 O5         -5.6132    0.6235   -3.4928 O.2       1 <0>        -0.2509
      7 N1         -0.2801   -0.3428    1.3828 N.pl3     1 <0>        -0.3422
      8 N2          3.4774    0.9740   -0.4694 N.am      1 <0>        -0.2814
      9 C1          0.8467    0.4346    1.4465 C.cat     1 <0>         0.0345
     10 C2         -1.5830    0.0342    1.9197 C.3       1 <0>         0.0259
     11 C3          0.0079   -1.5173    0.7379 C.2       1 <0>         0.0578
     12 C4          0.8427    1.7678    2.0878 C.3       1 <0>        -0.0054
     13 C5         -2.4676    0.7866    0.9159 C.3       1 <0>        -0.0087
     14 C6          1.8697   -0.2545    0.8333 C.2       1 <0>         0.0662
     15 C7          1.3391   -1.4894    0.3851 C.2       1 <0>         0.0200
     16 C8         -3.8124    1.2500    1.4918 C.3       1 <0>         0.0592
     17 C9         -4.6716    2.0601    0.5037 C.3       1 <0>        -0.0002
     18 C10        -0.9903   -2.5452    0.5178 C.ar      1 <0>        -0.0007
     19 C11         1.1735    2.9141    1.1044 C.3       1 <0>        -0.0573
     20 C12         1.7829    1.8543    3.3122 C.3       1 <0>        -0.0573
     21 C13         1.9982   -2.5605   -0.3109 C.ar      1 <0>        -0.0151
     22 C14        -5.0407    1.3839   -0.8241 C.3       1 <0>         0.0676
     23 C15         3.2144    0.2333    0.6988 C.2       1 <0>         0.2506
     24 C16        -5.8509    2.2858   -1.7542 C.3       1 <0>         0.0708
     25 C17        -1.7603   -2.5320   -0.6452 C.ar      1 <0>        -0.0499
     26 C18        -1.1800   -3.5479    1.4687 C.ar      1 <0>        -0.0499
     27 C19         2.6082   -3.5885    0.4081 C.ar      1 <0>        -0.0539
     28 C20         2.0278   -2.5720   -1.7055 C.ar      1 <0>        -0.0539
     29 C21        -2.7202   -3.5218   -0.8573 C.ar      1 <0>        -0.0258
     30 C22        -2.1396   -4.5376    1.2567 C.ar      1 <0>        -0.0258
     31 C23         3.2480   -4.6278   -0.2673 C.ar      1 <0>        -0.0612
     32 C24         2.6676   -3.6114   -2.3809 C.ar      1 <0>        -0.0612
     33 C25        -2.9096   -4.5247    0.0938 C.ar      1 <0>         0.1234
     34 C26         4.6805    1.6090   -0.8683 C.ar      1 <0>         0.0337
     35 C27        -5.7932    1.7932   -3.1800 C.2       1 <0>         0.3072
     36 C28         3.2777   -4.6392   -1.6617 C.ar      1 <0>        -0.0617
     37 C29         5.8088    1.5415   -0.0509 C.ar      1 <0>        -0.0405
     38 C30         4.7362    2.3009   -2.0782 C.ar      1 <0>        -0.0405
     39 C31         6.9928    2.1660   -0.4433 C.ar      1 <0>        -0.0600
     40 C32         5.9203    2.9253   -2.4706 C.ar      1 <0>        -0.0600
     41 C33         7.0484    2.8577   -1.6530 C.ar      1 <0>        -0.0616
     42 H1         -2.0944   -0.8836    2.2310 H         1 <0>         0.0493
     43 H2         -1.4371    0.5862    2.8518 H         1 <0>         0.0493
     44 H3         -0.1488    2.0240    2.4681 H         1 <0>         0.0358
     45 H4         -1.9149    1.6661    0.5607 H         1 <0>         0.0307
     46 H5         -2.6375    0.1510    0.0419 H         1 <0>         0.0307
     47 H6         -4.3724    0.3797    1.8524 H         1 <0>         0.0594
     48 H7         -5.5979    2.3403    1.0243 H         1 <0>         0.0315
     49 H8         -4.1582    3.0081    0.2941 H         1 <0>         0.0315
     50 H9          0.5763    2.8333    0.1899 H         1 <0>         0.0236
     51 H10         0.9519    3.8827    1.5667 H         1 <0>         0.0236
     52 H11         2.2303    2.9267    0.8268 H         1 <0>         0.0236
     53 H12         1.6343    2.8040    3.8381 H         1 <0>         0.0236
     54 H13         1.5778    1.0423    4.0183 H         1 <0>         0.0236
     55 H14         2.8371    1.8004    3.0274 H         1 <0>         0.0236
     56 H15        -4.1198    1.0917   -1.3420 H         1 <0>         0.0599
     57 H16        -6.9034    2.3247   -1.4545 H         1 <0>         0.0403
     58 H17        -5.4322    3.2986   -1.7369 H         1 <0>         0.0403
     59 H18        -1.6231   -1.7591   -1.3977 H         1 <0>         0.0625
     60 H19        -0.5877   -3.5720    2.3804 H         1 <0>         0.0625
     61 H20        -4.4046    2.3271    3.0151 H         1 <0>         0.2098
     62 H21         2.5944   -3.5944    1.4956 H         1 <0>         0.0624
     63 H22         1.5577   -1.7780   -2.2810 H         1 <0>         0.0624
     64 H23         2.7047    1.0794   -1.1242 H         1 <0>         0.1551
     65 H24        -3.3199   -3.5119   -1.7625 H         1 <0>         0.0646
     66 H25        -2.2876   -5.3185    1.9968 H         1 <0>         0.0646
     67 H26        -5.1616   -0.4369   -0.1195 H         1 <0>         0.2098
     68 H27         3.7230   -5.4282    0.2924 H         1 <0>         0.0618
     69 H28         2.6909   -3.6204   -3.4667 H         1 <0>         0.0618
     70 H29         3.7757   -5.4483   -2.1877 H         1 <0>         0.0618
     71 H30         5.8480    1.0277    0.8985 H         1 <0>         0.0636
     72 H31         3.8643    2.3612   -2.7245 H         1 <0>         0.0636
     73 H32        -5.9018    2.4629   -5.0062 H         1 <0>         0.2951
     74 H33         7.8720    2.1144    0.1924 H         1 <0>         0.0618
     75 H34         5.9639    3.4640   -3.4126 H         1 <0>         0.0618
     76 H35         7.9703    3.3440   -1.9585 H         1 <0>         0.0618
@<TRIPOS>BOND
     1    1   33 1
     2    2   16 1
     3    2   61 1
     4    3   22 1
     5    3   67 1
     6    4   23 2
     7    5   35 1
     8    5   73 1
     9    6   35 2
    10    7    9 1
    11    7   10 1
    12    7   11 2
    13    8   23 am
    14    8   34 1
    15    8   64 1
    16    9   12 1
    17    9   14 1
    18   10   13 1
    19   10   42 1
    20   10   43 1
    21   11   15 1
    22   11   18 1
    23   12   19 1
    24   12   20 1
    25   12   44 1
    26   13   16 1
    27   13   45 1
    28   13   46 1
    29   14   15 2
    30   14   23 1
    31   15   21 1
    32   16   17 1
    33   16   47 1
    34   17   22 1
    35   17   48 1
    36   17   49 1
    37   18   25 ar
    38   18   26 ar
    39   19   50 1
    40   19   51 1
    41   19   52 1
    42   20   53 1
    43   20   54 1
    44   20   55 1
    45   21   27 ar
    46   21   28 ar
    47   22   24 1
    48   22   56 1
    49   24   35 1
    50   24   57 1
    51   24   58 1
    52   25   29 ar
    53   25   59 1
    54   26   30 ar
    55   26   60 1
    56   27   31 ar
    57   27   62 1
    58   28   32 ar
    59   28   63 1
    60   29   33 ar
    61   29   65 1
    62   30   33 ar
    63   30   66 1
    64   31   36 ar
    65   31   68 1
    66   32   36 ar
    67   32   69 1
    68   34   37 ar
    69   34   38 ar
    70   36   70 1
    71   37   39 ar
    72   37   71 1
    73   38   40 ar
    74   38   72 1
    75   39   41 ar
    76   39   74 1
    77   40   41 ar
    78   40   75 1
    79   41   76 1
