@<TRIPOS>MOLECULE
DB01410
   83    88     0     0     0
SMALL
USER_CHARGES

@<TRIPOS>ATOM
      1 O1          1.3363   -0.8647    0.3214 O.3       1 <0>        -0.3338
      2 O2          1.0371   -2.1203    2.2789 O.3       1 <0>        -0.3445
      3 O3         -1.6971    3.3805   -0.1433 O.3       1 <0>        -0.3914
      4 O4          2.9726    0.6696    2.6754 O.2       1 <0>        -0.2906
      5 O5          4.2923    1.6886    0.4799 O.3       1 <0>        -0.4567
      6 O6         -6.9793    0.1515   -3.4219 O.2       1 <0>        -0.2879
      7 O7          4.2754    3.0646   -1.3712 O.2       1 <0>        -0.2505
      8 C1         -0.1315    0.9865    1.0486 C.3       1 <0>         0.0121
      9 C2         -1.2852   -0.0234    1.2436 C.3       1 <0>        -0.0268
     10 C3         -2.6766    0.6004    1.0704 C.3       1 <0>        -0.0310
     11 C4          1.0733    0.0660    1.3674 C.3       1 <0>         0.1648
     12 C5         -2.7941    1.1756   -0.3860 C.3       1 <0>         0.0007
     13 C6          0.6039   -0.7898    2.5488 C.3       1 <0>         0.0985
     14 C7         -0.9377   -0.7148    2.5638 C.3       1 <0>        -0.0196
     15 C8         -0.2150    1.5036   -0.3997 C.3       1 <0>        -0.0177
     16 C9         -1.5929    2.1033   -0.7562 C.3       1 <0>         0.0600
     17 C10        -4.2376    1.7457   -0.6826 C.3       1 <0>         0.0131
     18 C11        -3.7716   -0.4470    1.3438 C.3       1 <0>        -0.0458
     19 C12        -0.1647    2.1632    2.0615 C.3       1 <0>        -0.0561
     20 C13         1.5850   -2.1140    0.9628 C.3       1 <0>         0.1638
     21 C14         2.3692    0.7830    1.6096 C.2       1 <0>         0.2051
     22 C15        -5.1698    0.0853    1.0553 C.3       1 <0>        -0.0302
     23 C16        -5.2406    0.6358   -0.3461 C.2       1 <0>        -0.0559
     24 C17        -4.6114    2.9918    0.1522 C.3       1 <0>        -0.0520
     25 C18         0.9684   -3.2443    0.1406 C.3       1 <0>         0.0102
     26 C19        -4.3446    2.1593   -2.1427 C.2       1 <0>        -0.0701
     27 C20         2.8811    1.6443    0.4748 C.3       1 <0>         0.1532
     28 C21        -6.1147    0.1273   -1.2290 C.2       1 <0>        -0.0149
     29 C22         1.5621   -3.2713   -1.2744 C.3       1 <0>        -0.0456
     30 C23         1.1662   -4.5949    0.8420 C.3       1 <0>        -0.0456
     31 C24        -5.2114    1.6562   -3.0269 C.2       1 <0>        -0.0180
     32 C25        -6.1687    0.6099   -2.6241 C.2       1 <0>         0.1787
     33 C26         0.9997   -4.4266   -2.0996 C.3       1 <0>        -0.0526
     34 C27         0.6047   -5.7479    0.0132 C.3       1 <0>        -0.0526
     35 C28         1.1904   -5.7664   -1.3952 C.3       1 <0>        -0.0530
     36 C29         4.8806    2.4430   -0.5076 C.2       1 <0>         0.3101
     37 C30         6.3927    2.3843   -0.3804 C.3       1 <0>         0.0508
     38 C31         6.9308    1.2031   -1.1790 C.3       1 <0>        -0.0525
     39 C32         7.0262    3.6929   -0.8457 C.3       1 <0>        -0.0525
     40 H1         -1.2046   -0.8007    0.4664 H         1 <0>         0.0311
     41 H2         -2.8113    1.4084    1.7961 H         1 <0>         0.0308
     42 H3         -2.6744    0.3035   -1.0524 H         1 <0>         0.0340
     43 H4          0.9903   -0.4890    3.5276 H         1 <0>         0.0630
     44 H5         -1.2790   -0.1078    3.4100 H         1 <0>         0.0294
     45 H6         -1.4013   -1.7035    2.6406 H         1 <0>         0.0294
     46 H7         -0.0186    0.6839   -1.1019 H         1 <0>         0.0297
     47 H8          0.5471    2.2673   -0.5799 H         1 <0>         0.0297
     48 H9         -1.6002    2.2763   -1.8384 H         1 <0>         0.0596
     49 H10        -3.7286   -0.7698    2.3907 H         1 <0>         0.0271
     50 H11        -3.5915   -1.3406    0.7313 H         1 <0>         0.0271
     51 H12         0.0616    1.8403    3.0833 H         1 <0>         0.0236
     52 H13         0.5697    2.9319    1.8009 H         1 <0>         0.0236
     53 H14        -1.1350    2.6612    2.1085 H         1 <0>         0.0236
     54 H15         2.6707   -2.2440    1.0502 H         1 <0>         0.0913
     55 H16        -5.8943   -0.7247    1.2041 H         1 <0>         0.0310
     56 H17        -5.4341    0.8659    1.7776 H         1 <0>         0.0310
     57 H18        -4.3851    2.8716    1.2157 H         1 <0>         0.0241
     58 H19        -5.6841    3.2132    0.0743 H         1 <0>         0.0241
     59 H20        -4.0886    3.8913   -0.1904 H         1 <0>         0.0241
     60 H21        -0.1119   -3.0622    0.0534 H         1 <0>         0.0350
     61 H22        -3.6807    2.9471   -2.4918 H         1 <0>         0.0582
     62 H23        -0.9669    3.9310   -0.4735 H         1 <0>         0.2098
     63 H24         2.4825    2.6554    0.5949 H         1 <0>         0.0779
     64 H25         2.5644    1.2156   -0.4803 H         1 <0>         0.0779
     65 H26        -6.8040   -0.6657   -0.9590 H         1 <0>         0.0655
     66 H27         1.3499   -2.3310   -1.7966 H         1 <0>         0.0270
     67 H28         2.6543   -3.3655   -1.2198 H         1 <0>         0.0270
     68 H29         2.2344   -4.7682    1.0242 H         1 <0>         0.0270
     69 H30         0.6720   -4.5960    1.8204 H         1 <0>         0.0270
     70 H31        -5.2407    2.0088   -4.0512 H         1 <0>         0.0653
     71 H32        -0.0689   -4.2584   -2.2815 H         1 <0>         0.0265
     72 H33         1.4901   -4.4525   -3.0792 H         1 <0>         0.0265
     73 H34         0.8186   -6.6994    0.5133 H         1 <0>         0.0265
     74 H35        -0.4868   -5.6566   -0.0463 H         1 <0>         0.0265
     75 H36         0.7169   -6.5620   -1.9814 H         1 <0>         0.0265
     76 H37         2.2605   -6.0016   -1.3422 H         1 <0>         0.0265
     77 H38         6.6413    2.2543    0.6803 H         1 <0>         0.0408
     78 H39         6.4901    0.2634   -0.8286 H         1 <0>         0.0237
     79 H40         6.6907    1.3004   -2.2437 H         1 <0>         0.0237
     80 H41         8.0182    1.1255   -1.0787 H         1 <0>         0.0237
     81 H42         6.8355    3.8753   -1.9091 H         1 <0>         0.0237
     82 H43         6.6176    4.5419   -0.2870 H         1 <0>         0.0237
     83 H44         8.1105    3.6761   -0.6934 H         1 <0>         0.0237
@<TRIPOS>BOND
     1    1   11 1
     2    1   20 1
     3    2   13 1
     4    2   20 1
     5    3   16 1
     6    3   62 1
     7    4   21 2
     8    5   27 1
     9    5   36 1
    10    6   32 2
    11    7   36 2
    12    8    9 1
    13    8   11 1
    14    8   15 1
    15    8   19 1
    16    9   10 1
    17    9   14 1
    18    9   40 1
    19   10   12 1
    20   10   18 1
    21   10   41 1
    22   11   13 1
    23   11   21 1
    24   12   16 1
    25   12   17 1
    26   12   42 1
    27   13   14 1
    28   13   43 1
    29   14   44 1
    30   14   45 1
    31   15   16 1
    32   15   46 1
    33   15   47 1
    34   16   48 1
    35   17   23 1
    36   17   24 1
    37   17   26 1
    38   18   22 1
    39   18   49 1
    40   18   50 1
    41   19   51 1
    42   19   52 1
    43   19   53 1
    44   20   25 1
    45   20   54 1
    46   21   27 1
    47   22   23 1
    48   22   55 1
    49   22   56 1
    50   23   28 2
    51   24   57 1
    52   24   58 1
    53   24   59 1
    54   25   29 1
    55   25   30 1
    56   25   60 1
    57   26   31 2
    58   26   61 1
    59   27   63 1
    60   27   64 1
    61   28   32 1
    62   28   65 1
    63   29   33 1
    64   29   66 1
    65   29   67 1
    66   30   34 1
    67   30   68 1
    68   30   69 1
    69   31   32 1
    70   31   70 1
    71   33   35 1
    72   33   71 1
    73   33   72 1
    74   34   35 1
    75   34   73 1
    76   34   74 1
    77   35   75 1
    78   35   76 1
    79   36   37 1
    80   37   38 1
    81   37   39 1
    82   37   77 1
    83   38   78 1
    84   38   79 1
    85   38   80 1
    86   39   81 1
    87   39   82 1
    88   39   83 1
