@<TRIPOS>MOLECULE
DB01251
   70    73     0     0     0
SMALL
USER_CHARGES

@<TRIPOS>ATOM
      1 S1         -1.5637    3.3323    2.5903 S.o2      1 <0>         0.0756
      2 O1          5.5289    0.6876   -0.4782 O.2       1 <0>        -0.2742
      3 O2          1.0108    0.8181   -1.4881 O.2       1 <0>        -0.2696
      4 O3         -3.3790    3.1550    0.0790 O.2       1 <0>        -0.2512
      5 O4         -0.9265   -2.8276    1.3223 O.3       1 <0>        -0.4951
      6 O5         -2.2624    4.5819    2.3201 O.2       1 <0>        -0.1499
      7 O6         -1.2082    2.9894    3.9605 O.2       1 <0>        -0.1499
      8 N1         -3.8805    0.9248    0.4234 N.am      1 <0>        -0.2953
      9 N2          3.3178    0.7292   -1.1750 N.am      1 <0>        -0.2371
     10 N3         -2.4644    2.0396    1.9160 N.am      1 <0>        -0.1693
     11 C1         -4.7383    0.7554   -0.7285 C.3       1 <0>         0.0246
     12 C2         -5.8412   -0.2708   -0.4481 C.3       1 <0>        -0.0345
     13 C3         -3.9248    0.3717   -1.9692 C.3       1 <0>        -0.0345
     14 C4         -5.3058   -1.7013   -0.3813 C.3       1 <0>        -0.0514
     15 C5         -3.3927   -1.0597   -1.8999 C.3       1 <0>        -0.0514
     16 C6         -4.5098   -2.0634   -1.6314 C.3       1 <0>        -0.0529
     17 C7          4.3205   -1.4111   -0.4108 C.3       1 <0>         0.0675
     18 C8          2.9325   -1.7774    0.0902 C.ar      1 <0>        -0.0206
     19 C9          4.4606    0.0987   -0.6618 C.2       1 <0>         0.2320
     20 C10         1.8293   -0.9809   -0.2421 C.ar      1 <0>         0.0449
     21 C11         4.5564   -2.1161   -1.7622 C.3       1 <0>        -0.0474
     22 C12         5.4402   -1.8350    0.5663 C.3       1 <0>        -0.0474
     23 C13         3.4850    2.0543   -1.7613 C.3       1 <0>         0.0266
     24 C14         2.0052    0.2540   -1.0353 C.2       1 <0>         0.2533
     25 C15        -3.2664    2.1230    0.7337 C.2       1 <0>         0.3191
     26 C16         2.6937   -2.9528    0.8266 C.ar      1 <0>        -0.0534
     27 C17         3.4967    3.1624   -0.7112 C.3       1 <0>        -0.0113
     28 C18         0.5344   -1.3356    0.1688 C.ar      1 <0>        -0.0075
     29 C19         2.2337    3.2052    0.1136 C.ar      1 <0>        -0.0458
     30 C20         1.4063   -3.3041    1.2391 C.ar      1 <0>        -0.0196
     31 C21         0.3267   -2.4939    0.9121 C.ar      1 <0>         0.1208
     32 C22        -0.1022    3.2825    1.6366 C.ar      1 <0>         0.1086
     33 C23         1.1546    3.9846   -0.3034 C.ar      1 <0>        -0.0567
     34 C24         2.1447    2.4643    1.2921 C.ar      1 <0>        -0.0567
     35 C25        -0.0133    4.0233    0.4582 C.ar      1 <0>        -0.0348
     36 C26         0.9768    2.5029    2.0537 C.ar      1 <0>        -0.0348
     37 C27        -1.0632   -4.0251    2.0866 C.3       1 <0>         0.0788
     38 H1         -5.2165    1.7237   -0.9223 H         1 <0>         0.0499
     39 H2         -6.5930   -0.2131   -1.2454 H         1 <0>         0.0283
     40 H3         -6.3546   -0.0311    0.4909 H         1 <0>         0.0283
     41 H4         -3.0853    1.0633   -2.1089 H         1 <0>         0.0283
     42 H5         -4.5637    0.4663   -2.8565 H         1 <0>         0.0283
     43 H6         -6.1438   -2.3986   -0.2677 H         1 <0>         0.0266
     44 H7         -4.6730   -1.8258    0.5053 H         1 <0>         0.0266
     45 H8         -2.6370   -1.1353   -1.1092 H         1 <0>         0.0266
     46 H9         -2.8916   -1.3107   -2.8417 H         1 <0>         0.0266
     47 H10        -5.1845   -2.0969   -2.4957 H         1 <0>         0.0265
     48 H11        -4.0846   -3.0672   -1.5197 H         1 <0>         0.0265
     49 H12        -3.6779    0.1198    1.0078 H         1 <0>         0.1506
     50 H13         5.5348   -1.8507   -2.1799 H         1 <0>         0.0243
     51 H14         4.5216   -3.2068   -1.6575 H         1 <0>         0.0243
     52 H15         3.8023   -1.8341   -2.5069 H         1 <0>         0.0243
     53 H16         6.4272   -1.5074    0.2180 H         1 <0>         0.0243
     54 H17         5.2822   -1.3974    1.5594 H         1 <0>         0.0243
     55 H18         5.5047   -2.9221    0.6813 H         1 <0>         0.0243
     56 H19         4.4334    2.0760   -2.3118 H         1 <0>         0.0473
     57 H20         2.6872    2.2368   -2.4911 H         1 <0>         0.0473
     58 H21         3.5048   -3.6281    1.0829 H         1 <0>         0.0622
     59 H22         3.6409    4.1306   -1.2077 H         1 <0>         0.0329
     60 H23         4.3569    3.0475   -0.0397 H         1 <0>         0.0329
     61 H24        -0.3207   -0.7104   -0.0765 H         1 <0>         0.0662
     62 H25        -2.4547    1.1483    2.4278 H         1 <0>         0.1781
     63 H26         1.3213   -4.2251    1.8058 H         1 <0>         0.0654
     64 H27         1.2110    4.5630   -1.2216 H         1 <0>         0.0621
     65 H28         2.9785    1.8554    1.6313 H         1 <0>         0.0621
     66 H29        -0.8423    4.6338    0.1122 H         1 <0>         0.0637
     67 H30         0.9279    1.9119    2.9639 H         1 <0>         0.0637
     68 H31        -2.1252   -4.1334    2.3297 H         1 <0>         0.0660
     69 H32        -0.5221   -3.9601    3.0367 H         1 <0>         0.0660
     70 H33        -0.7765   -4.9079    1.5050 H         1 <0>         0.0660
@<TRIPOS>BOND
     1    1    6 2
     2    1    7 2
     3    1   10 1
     4    1   32 1
     5    2   19 2
     6    3   24 2
     7    4   25 2
     8    5   31 1
     9    5   37 1
    10    8   11 1
    11    8   25 am
    12    8   49 1
    13    9   19 am
    14    9   23 1
    15    9   24 am
    16   10   25 am
    17   10   62 1
    18   11   12 1
    19   11   13 1
    20   11   38 1
    21   12   14 1
    22   12   39 1
    23   12   40 1
    24   13   15 1
    25   13   41 1
    26   13   42 1
    27   14   16 1
    28   14   43 1
    29   14   44 1
    30   15   16 1
    31   15   45 1
    32   15   46 1
    33   16   47 1
    34   16   48 1
    35   17   18 1
    36   17   19 1
    37   17   21 1
    38   17   22 1
    39   18   20 ar
    40   18   26 ar
    41   20   24 1
    42   20   28 ar
    43   21   50 1
    44   21   51 1
    45   21   52 1
    46   22   53 1
    47   22   54 1
    48   22   55 1
    49   23   27 1
    50   23   56 1
    51   23   57 1
    52   26   30 ar
    53   26   58 1
    54   27   29 1
    55   27   59 1
    56   27   60 1
    57   28   31 ar
    58   28   61 1
    59   29   33 ar
    60   29   34 ar
    61   30   31 ar
    62   30   63 1
    63   32   35 ar
    64   32   36 ar
    65   33   35 ar
    66   33   64 1
    67   34   36 ar
    68   34   65 1
    69   35   66 1
    70   36   67 1
    71   37   68 1
    72   37   69 1
    73   37   70 1
