@<TRIPOS>MOLECULE
DB01061
   55    58     0     0     0
SMALL
USER_CHARGES

@<TRIPOS>ATOM
      1 S1          2.5461    0.1571   -1.0246 S.3       1 <0>        -0.1273
      2 O1          2.8423   -2.7986    2.2293 O.2       1 <0>        -0.2734
      3 O2          6.6738   -0.8878    1.4356 O.3       1 <0>        -0.4793
      4 O3          6.2436   -2.4211   -0.1953 O.2       1 <0>        -0.2489
      5 O4         -0.7495   -1.3468   -1.3914 O.2       1 <0>        -0.2734
      6 O5         -3.9827    0.0355    2.0390 O.2       1 <0>        -0.2521
      7 O6         -4.6738   -1.0878   -2.0809 O.2       1 <0>        -0.2522
      8 N1          3.5778   -1.8979    0.1755 N.am      1 <0>        -0.2708
      9 N2          0.4582   -1.4341    0.5875 N.am      1 <0>        -0.2999
     10 N3         -2.9132   -0.3738    0.0333 N.am      1 <0>        -0.2836
     11 N4         -5.2477   -0.5768    0.1836 N.am      1 <0>        -0.2084
     12 N5         -6.8783   -1.1580   -1.3062 N.am      1 <0>        -0.2974
     13 C1          2.5671   -1.6654   -0.8603 C.3       1 <0>         0.1005
     14 C2          4.3545    0.2556   -0.5894 C.3       1 <0>         0.0417
     15 C3          4.5349   -0.8513    0.4718 C.3       1 <0>         0.1379
     16 C4          1.5384   -2.2853    0.0954 C.3       1 <0>         0.1277
     17 C5          2.7160   -2.4539    1.0762 C.2       1 <0>         0.2402
     18 C6          5.1623    0.0417   -1.8767 C.3       1 <0>        -0.0484
     19 C7          4.6514    1.6392   -0.0080 C.3       1 <0>        -0.0484
     20 C8          5.8878   -1.4875    0.5083 C.2       1 <0>         0.3269
     21 C9         -0.6137   -1.0294   -0.2113 C.2       1 <0>         0.2386
     22 C10        -1.5801   -0.1059    0.5193 C.3       1 <0>         0.1261
     23 C11        -1.2013    1.3473    0.3542 C.ar      1 <0>        -0.0184
     24 C12        -4.0355   -0.2804    0.8480 C.2       1 <0>         0.3106
     25 C13        -0.3396    1.9518    1.2696 C.ar      1 <0>        -0.0563
     26 C14        -1.7129    2.0847   -0.7138 C.ar      1 <0>        -0.0563
     27 C15        -6.5178   -0.4380    0.8797 C.3       1 <0>         0.0409
     28 C16        -7.5559   -1.0361   -0.0468 C.3       1 <0>         0.0294
     29 C17        -5.4935   -0.9577   -1.1811 C.2       1 <0>         0.3098
     30 C18         0.0105    3.2934    1.1172 C.ar      1 <0>        -0.0614
     31 C19        -1.3627    3.4263   -0.8661 C.ar      1 <0>        -0.0614
     32 C20        -0.5011    4.0307    0.0493 C.ar      1 <0>        -0.0617
     33 H1          2.7647   -2.2238   -1.7797 H         1 <0>         0.0640
     34 H2          4.2935   -0.4819    1.4780 H         1 <0>         0.0631
     35 H3          1.1531   -3.2545   -0.2445 H         1 <0>         0.0622
     36 H4          4.9133    0.7937   -2.6351 H         1 <0>         0.0244
     37 H5          6.2375    0.1322   -1.6841 H         1 <0>         0.0244
     38 H6          4.9901   -0.9463   -2.3179 H         1 <0>         0.0244
     39 H7          4.4568    2.4342   -0.7371 H         1 <0>         0.0244
     40 H8          4.0471    1.8460    0.8829 H         1 <0>         0.0244
     41 H9          5.7041    1.7166    0.2870 H         1 <0>         0.0244
     42 H10         0.4805   -1.1067    1.5504 H         1 <0>         0.1496
     43 H11        -1.5702   -0.3565    1.5879 H         1 <0>         0.0646
     44 H12         7.5670   -1.2914    1.4750 H         1 <0>         0.2951
     45 H13        -3.0317   -0.6210   -0.9439 H         1 <0>         0.1513
     46 H14         0.0671    1.3887    2.1052 H         1 <0>         0.0621
     47 H15        -2.3735    1.6394   -1.4523 H         1 <0>         0.0621
     48 H16        -6.6930    0.6314    1.0441 H         1 <0>         0.0486
     49 H17        -6.4830   -0.9312    1.8563 H         1 <0>         0.0486
     50 H18        -7.8552   -2.0389    0.2727 H         1 <0>         0.0478
     51 H19        -8.4444   -0.4090   -0.1558 H         1 <0>         0.0478
     52 H20        -7.3265   -1.4487   -2.1694 H         1 <0>         0.1503
     53 H21         0.6825    3.7635    1.8292 H         1 <0>         0.0618
     54 H22        -1.7577    3.9997   -1.6997 H         1 <0>         0.0618
     55 H23        -0.2273    5.0748   -0.0702 H         1 <0>         0.0618
@<TRIPOS>BOND
     1    1   13 1
     2    1   14 1
     3    2   17 2
     4    3   20 1
     5    3   44 1
     6    4   20 2
     7    5   21 2
     8    6   24 2
     9    7   29 2
    10    8   13 1
    11    8   15 1
    12    8   17 am
    13    9   16 1
    14    9   21 am
    15    9   42 1
    16   10   22 1
    17   10   24 am
    18   10   45 1
    19   11   24 am
    20   11   27 1
    21   11   29 am
    22   12   28 1
    23   12   29 am
    24   12   52 1
    25   13   16 1
    26   13   33 1
    27   14   15 1
    28   14   18 1
    29   14   19 1
    30   15   20 1
    31   15   34 1
    32   16   17 1
    33   16   35 1
    34   18   36 1
    35   18   37 1
    36   18   38 1
    37   19   39 1
    38   19   40 1
    39   19   41 1
    40   21   22 1
    41   22   23 1
    42   22   43 1
    43   23   25 ar
    44   23   26 ar
    45   25   30 ar
    46   25   46 1
    47   26   31 ar
    48   26   47 1
    49   27   28 1
    50   27   48 1
    51   27   49 1
    52   28   50 1
    53   28   51 1
    54   30   32 ar
    55   30   53 1
    56   31   32 ar
    57   31   54 1
    58   32   55 1
