@<TRIPOS>MOLECULE
DB01348
   61    63     0     0     0
SMALL
USER_CHARGES

@<TRIPOS>ATOM
      1 S1         -5.3551   -1.4794   -0.2936 S.3       1 <0>        -0.1408
      2 S2         -4.9837    0.9931    1.3333 S.3       1 <0>        -0.1408
      3 O1          0.0584   -2.1723   -0.5239 O.2       1 <0>        -0.2739
      4 O2         -3.0435   -4.1973    1.5951 O.3       1 <0>        -0.4793
      5 O3         -2.7326   -3.6993   -0.6074 O.2       1 <0>        -0.2489
      6 O4          0.8457    2.9529    0.2457 O.3       1 <0>        -0.4638
      7 O5          1.2683    2.7679   -2.0128 O.2       1 <0>        -0.2491
      8 N1         -1.9697   -1.1632   -0.0427 N.am      1 <0>        -0.2845
      9 N2          0.9872    0.0210   -1.6967 N.3       1 <0>        -0.2937
     10 C1         -4.1415   -0.4806    0.6632 C.3       1 <0>         0.0798
     11 C2         -3.4786   -1.3080    1.7785 C.3       1 <0>         0.0015
     12 C3         -2.3155   -2.0213    1.0843 C.3       1 <0>         0.1249
     13 C4         -2.9553   -0.0938   -0.2262 C.3       1 <0>         0.0394
     14 C5         -0.7511   -1.2598   -0.6992 C.2       1 <0>         0.2331
     15 C6         -6.8289   -0.5092    0.1129 C.3       1 <0>         0.0041
     16 C7         -6.4128    0.9409    0.2276 C.3       1 <0>         0.0041
     17 C8         -2.7100   -3.3750    0.5705 C.2       1 <0>         0.3255
     18 C9         -0.4543   -0.1605   -1.6881 C.3       1 <0>         0.0827
     19 C10         1.4229    0.8155   -0.5545 C.3       1 <0>         0.1067
     20 C11        -0.9631   -0.5486   -3.0618 C.3       1 <0>        -0.0411
     21 C12         2.9125    0.5963   -0.2445 C.3       1 <0>        -0.0232
     22 C13         3.3104   -0.8528    0.0700 C.3       1 <0>        -0.0258
     23 C14         1.1820    2.2769   -0.8948 C.2       1 <0>         0.3243
     24 C15         4.7874   -1.0399    0.3084 C.ar      1 <0>        -0.0473
     25 C16         5.6341   -1.3368   -0.7598 C.ar      1 <0>        -0.0586
     26 C17         5.3074   -0.9154    1.5967 C.ar      1 <0>        -0.0586
     27 C18         0.5792    4.3492    0.0800 C.3       1 <0>         0.0897
     28 C19         7.0005   -1.5097   -0.5395 C.ar      1 <0>        -0.0615
     29 C20         6.6739   -1.0881    1.8169 C.ar      1 <0>        -0.0615
     30 C21         7.5204   -1.3852    0.7487 C.ar      1 <0>        -0.0617
     31 C22         0.2246    4.9465    1.4252 C.3       1 <0>        -0.0306
     32 H1         -3.0485   -0.6414    2.5391 H         1 <0>         0.0311
     33 H2         -4.1727   -1.9795    2.2957 H         1 <0>         0.0311
     34 H3         -1.4415   -2.1397    1.7344 H         1 <0>         0.0617
     35 H4         -2.4751    0.8269    0.1287 H         1 <0>         0.0487
     36 H5         -3.2063    0.0368   -1.2824 H         1 <0>         0.0487
     37 H6         -7.5827   -0.6391   -0.6695 H         1 <0>         0.0385
     38 H7         -7.2559   -0.8810    1.0510 H         1 <0>         0.0385
     39 H8         -7.2232    1.5500    0.6385 H         1 <0>         0.0385
     40 H9         -6.1367    1.3619   -0.7455 H         1 <0>         0.0385
     41 H10        -0.9421    0.7789   -1.4159 H         1 <0>         0.0554
     42 H11         1.3025    0.4504   -2.5657 H         1 <0>         0.1234
     43 H12         0.8502    0.5558    0.3451 H         1 <0>         0.0576
     44 H13        -0.4792   -1.4637   -3.4245 H         1 <0>         0.0249
     45 H14        -2.0403   -0.7428   -3.0572 H         1 <0>         0.0249
     46 H15        -0.7699    0.2447   -3.7922 H         1 <0>         0.0249
     47 H16         3.1967    1.2375    0.6013 H         1 <0>         0.0289
     48 H17         3.5139    0.9559   -1.0919 H         1 <0>         0.0289
     49 H18        -3.3069   -5.0879    1.2793 H         1 <0>         0.2951
     50 H19         2.7532   -1.2007    0.9497 H         1 <0>         0.0314
     51 H20         3.0050   -1.5157   -0.7493 H         1 <0>         0.0314
     52 H21         5.2412   -1.4340   -1.7684 H         1 <0>         0.0620
     53 H22         4.6583   -0.6823    2.4364 H         1 <0>         0.0620
     54 H23        -0.2572    4.4808   -0.6155 H         1 <0>         0.0694
     55 H24         1.4693    4.8455   -0.3226 H         1 <0>         0.0694
     56 H25         7.6598   -1.7404   -1.3712 H         1 <0>         0.0618
     57 H26         7.0792   -0.9907    2.8198 H         1 <0>         0.0618
     58 H27         8.5845   -1.5193    0.9201 H         1 <0>         0.0618
     59 H28         0.0141    6.0158    1.3352 H         1 <0>         0.0262
     60 H29         1.0445    4.8058    2.1372 H         1 <0>         0.0262
     61 H30        -0.6533    4.4475    1.8487 H         1 <0>         0.0262
@<TRIPOS>BOND
     1    1   10 1
     2    1   15 1
     3    2   10 1
     4    2   16 1
     5    3   14 2
     6    4   17 1
     7    4   49 1
     8    5   17 2
     9    6   23 1
    10    6   27 1
    11    7   23 2
    12    8   12 1
    13    8   13 1
    14    8   14 am
    15    9   18 1
    16    9   19 1
    17    9   42 1
    18   10   11 1
    19   10   13 1
    20   11   12 1
    21   11   32 1
    22   11   33 1
    23   12   17 1
    24   12   34 1
    25   13   35 1
    26   13   36 1
    27   14   18 1
    28   15   16 1
    29   15   37 1
    30   15   38 1
    31   16   39 1
    32   16   40 1
    33   18   20 1
    34   18   41 1
    35   19   21 1
    36   19   23 1
    37   19   43 1
    38   20   44 1
    39   20   45 1
    40   20   46 1
    41   21   22 1
    42   21   47 1
    43   21   48 1
    44   22   24 1
    45   22   50 1
    46   22   51 1
    47   24   25 ar
    48   24   26 ar
    49   25   28 ar
    50   25   52 1
    51   26   29 ar
    52   26   53 1
    53   27   31 1
    54   27   54 1
    55   27   55 1
    56   28   30 ar
    57   28   56 1
    58   29   30 ar
    59   29   57 1
    60   30   58 1
    61   31   59 1
    62   31   60 1
    63   31   61 1
