@<TRIPOS>MOLECULE
DB01105
   45    46     0     0     0
SMALL
USER_CHARGES

@<TRIPOS>ATOM
      1 Cl1         5.7509   -2.0234    0.6599 Cl        1 <0>        -0.0835
      2 N1         -0.4868   -1.0360   -0.7475 N.3       1 <0>        -0.3046
      3 C1          0.4965    0.9637    0.2390 C.3       1 <0>         0.0113
      4 C2          0.3038    1.9398   -0.9404 C.3       1 <0>        -0.0419
      5 C3          0.2660    2.1689    1.1744 C.3       1 <0>        -0.0419
      6 C4         -0.6381   -0.0583    0.3295 C.3       1 <0>         0.0197
      7 C5          0.7548    3.0635    0.0161 C.3       1 <0>        -0.0514
      8 C6          1.8241    0.2115    0.3443 C.ar      1 <0>        -0.0396
      9 C7         -1.9858    0.6820    0.2349 C.3       1 <0>        -0.0342
     10 C8         -3.2493   -0.1918    0.3790 C.3       1 <0>        -0.0453
     11 C9          2.2049   -0.4005    1.5493 C.ar      1 <0>        -0.0566
     12 C10         2.6853    0.1167   -0.7612 C.ar      1 <0>        -0.0566
     13 C11         0.7954   -1.7296   -0.6316 C.3       1 <0>        -0.0127
     14 C12        -0.5984   -0.3823   -2.0510 C.3       1 <0>        -0.0127
     15 C13        -3.2055   -0.9443    1.7124 C.3       1 <0>        -0.0626
     16 C14        -3.4049   -1.1885   -0.7699 C.3       1 <0>        -0.0626
     17 C15         3.4144   -1.0887    1.6466 C.ar      1 <0>        -0.0431
     18 C16         3.8947   -0.5713   -0.6640 C.ar      1 <0>        -0.0431
     19 C17         4.2593   -1.1744    0.5399 C.ar      1 <0>         0.0410
     20 H1         -0.6789    2.2006   -1.3349 H         1 <0>         0.0274
     21 H2          0.9608    1.9079   -1.8130 H         1 <0>         0.0274
     22 H3          0.9142    2.2085    2.0582 H         1 <0>         0.0274
     23 H4         -0.7170    2.4836    1.5192 H         1 <0>         0.0274
     24 H5         -0.6006   -0.5721    1.2976 H         1 <0>         0.0471
     25 H6          0.2381    4.0204   -0.0963 H         1 <0>         0.0266
     26 H7          1.8362    3.2438    0.0183 H         1 <0>         0.0266
     27 H8         -2.0959    1.3749    1.0703 H         1 <0>         0.0283
     28 H9         -2.1540    1.2917   -0.6505 H         1 <0>         0.0283
     29 H10        -4.1234    0.4720    0.3827 H         1 <0>         0.0296
     30 H11         1.5624   -0.3401    2.4243 H         1 <0>         0.0621
     31 H12         2.4624    0.5727   -1.7186 H         1 <0>         0.0621
     32 H13         0.4770   -2.7350   -0.9739 H         1 <0>         0.0391
     33 H14         1.5252   -1.6101   -1.4329 H         1 <0>         0.0391
     34 H15         1.0944   -2.0757    0.3594 H         1 <0>         0.0391
     35 H16        -1.4304    0.3038   -2.2045 H         1 <0>         0.0391
     36 H17         0.3235    0.0513   -2.4408 H         1 <0>         0.0391
     37 H18        -0.8137   -1.1864   -2.7700 H         1 <0>         0.0391
     38 H19        -2.4426   -1.7290    1.7263 H         1 <0>         0.0232
     39 H20        -4.1692   -1.4323    1.8974 H         1 <0>         0.0232
     40 H21        -3.0185   -0.2622    2.5484 H         1 <0>         0.0232
     41 H22        -3.3468   -0.6991   -1.7452 H         1 <0>         0.0232
     42 H23        -2.7093   -2.0290   -0.7236 H         1 <0>         0.0232
     43 H24        -4.4055   -1.6362   -0.7151 H         1 <0>         0.0232
     44 H25         3.6858   -1.5526    2.5913 H         1 <0>         0.0632
     45 H26         4.5442   -0.6286   -1.5337 H         1 <0>         0.0632
@<TRIPOS>BOND
     1    1   19 1
     2    2    6 1
     3    2   13 1
     4    2   14 1
     5    3    4 1
     6    3    5 1
     7    3    6 1
     8    3    8 1
     9    4    7 1
    10    4   20 1
    11    4   21 1
    12    5    7 1
    13    5   22 1
    14    5   23 1
    15    6    9 1
    16    6   24 1
    17    7   25 1
    18    7   26 1
    19    8   11 ar
    20    8   12 ar
    21    9   10 1
    22    9   27 1
    23    9   28 1
    24   10   15 1
    25   10   16 1
    26   10   29 1
    27   11   17 ar
    28   11   30 1
    29   12   18 ar
    30   12   31 1
    31   13   32 1
    32   13   33 1
    33   13   34 1
    34   14   35 1
    35   14   36 1
    36   14   37 1
    37   15   38 1
    38   15   39 1
    39   15   40 1
    40   16   41 1
    41   16   42 1
    42   16   43 1
    43   17   19 ar
    44   17   44 1
    45   18   19 ar
    46   18   45 1
