@<TRIPOS>MOLECULE
DB01604
   61    63     0     0     0
SMALL
USER_CHARGES

@<TRIPOS>ATOM
      1 S1         -1.5917    0.0357    1.0573 S.3       1 <0>        -0.1273
      2 O1         -1.3780    3.4783   -1.6840 O.2       1 <0>        -0.2734
      3 O2          2.4207    1.3709   -1.4251 O.3       1 <0>        -0.4260
      4 O3          2.1087    2.6481    0.4752 O.2       1 <0>        -0.2486
      5 O4         -4.8205    1.5207    1.8385 O.2       1 <0>        -0.2737
      6 O5          4.7116    1.1862   -0.7231 O.3       1 <0>        -0.4269
      7 O6          4.1661   -0.8323   -1.6839 O.2       1 <0>        -0.2502
      8 N1         -0.5663    2.2406    0.1544 N.am      1 <0>        -0.2708
      9 N2         -3.7136    1.9066   -0.1622 N.am      1 <0>        -0.3002
     10 N3         -7.1032    0.8595    0.4301 N.3       1 <0>        -0.3163
     11 C1         -1.5308    1.8597    1.1906 C.3       1 <0>         0.1005
     12 C2          0.1900   -0.0228    0.5170 C.3       1 <0>         0.0417
     13 C3          0.3471    1.2395   -0.3580 C.3       1 <0>         0.1382
     14 C4         -2.5884    2.6461    0.4039 C.3       1 <0>         0.1277
     15 C5         -1.4564    2.9517   -0.5972 C.2       1 <0>         0.2402
     16 C6          0.4214   -1.2977   -0.2963 C.3       1 <0>        -0.0484
     17 C7          1.0654   -0.0371    1.7774 C.3       1 <0>        -0.0484
     18 C8          1.7128    1.8487   -0.3622 C.2       1 <0>         0.3319
     19 C9         -4.7551    1.3962    0.6165 C.2       1 <0>         0.2350
     20 C10        -5.7986    0.6448   -0.2028 C.3       1 <0>         0.1079
     21 C11         3.7638    1.8624   -1.5654 C.3       1 <0>         0.2388
     22 C12        -5.4448   -0.8239   -0.3117 C.ar      1 <0>        -0.0219
     23 C13         5.8491   -0.7437    0.0854 C.3       1 <0>         0.0595
     24 C14        -4.6535   -1.2741   -1.3685 C.ar      1 <0>        -0.0566
     25 C15        -5.9097   -1.7262    0.6451 C.ar      1 <0>        -0.0566
     26 C16         4.8141   -0.1666   -0.8852 C.2       1 <0>         0.3152
     27 C17         7.2248   -0.1276   -0.2013 C.3       1 <0>        -0.0499
     28 C18         5.4165   -0.4420    1.5266 C.3       1 <0>        -0.0499
     29 C19         5.9353   -2.2668   -0.1023 C.3       1 <0>        -0.0499
     30 C20        -4.3273   -2.6266   -1.4688 C.ar      1 <0>        -0.0614
     31 C21        -5.5834   -3.0788    0.5449 C.ar      1 <0>        -0.0614
     32 C22        -4.7922   -3.5289   -0.5121 C.ar      1 <0>        -0.0617
     33 H1         -1.2734    2.2566    2.1768 H         1 <0>         0.0640
     34 H2          0.0449    1.0441   -1.3963 H         1 <0>         0.0631
     35 H3         -2.9308    3.5536    0.9167 H         1 <0>         0.0622
     36 H4          0.2388   -2.1976    0.3022 H         1 <0>         0.0244
     37 H5         -0.2286   -1.3434   -1.1778 H         1 <0>         0.0244
     38 H6          1.4568   -1.3467   -0.6517 H         1 <0>         0.0244
     39 H7          0.8406   -0.9028    2.4119 H         1 <0>         0.0244
     40 H8          2.1261   -0.1053    1.5136 H         1 <0>         0.0244
     41 H9          0.9367    0.8651    2.3856 H         1 <0>         0.0244
     42 H10        -3.7508    1.7446   -1.1658 H         1 <0>         0.1496
     43 H11        -5.8548    1.0792   -1.2087 H         1 <0>         0.0605
     44 H12         3.8086    2.9348   -1.3448 H         1 <0>         0.1168
     45 H13         4.0646    1.7376   -2.6117 H         1 <0>         0.1168
     46 H14        -7.3150    1.8570    0.4423 H         1 <0>         0.1192
     47 H15        -7.8318    0.4283   -0.1386 H         1 <0>         0.1192
     48 H16        -4.2838   -0.5817   -2.1199 H         1 <0>         0.0621
     49 H17        -6.5132   -1.4062    1.4899 H         1 <0>         0.0621
     50 H18         7.5184   -0.2891   -1.2450 H         1 <0>         0.0240
     51 H19         7.2263    0.9543   -0.0278 H         1 <0>         0.0240
     52 H20         7.9976   -0.5663    0.4398 H         1 <0>         0.0240
     53 H21         6.1193   -0.8727    2.2485 H         1 <0>         0.0240
     54 H22         5.3652    0.6356    1.7187 H         1 <0>         0.0240
     55 H23         4.4247   -0.8580    1.7348 H         1 <0>         0.0240
     56 H24         6.6658   -2.7115    0.5828 H         1 <0>         0.0240
     57 H25         6.2353   -2.5248   -1.1247 H         1 <0>         0.0240
     58 H26         4.9670   -2.7457    0.0846 H         1 <0>         0.0240
     59 H27        -3.7103   -2.9769   -2.2910 H         1 <0>         0.0618
     60 H28        -5.9416   -3.7811    1.2919 H         1 <0>         0.0618
     61 H29        -4.5368   -4.5817   -0.5893 H         1 <0>         0.0618
@<TRIPOS>BOND
     1    1   11 1
     2    1   12 1
     3    2   15 2
     4    3   18 1
     5    3   21 1
     6    4   18 2
     7    5   19 2
     8    6   21 1
     9    6   26 1
    10    7   26 2
    11    8   11 1
    12    8   13 1
    13    8   15 am
    14    9   14 1
    15    9   19 am
    16    9   42 1
    17   10   20 1
    18   10   46 1
    19   10   47 1
    20   11   14 1
    21   11   33 1
    22   12   13 1
    23   12   16 1
    24   12   17 1
    25   13   18 1
    26   13   34 1
    27   14   15 1
    28   14   35 1
    29   16   36 1
    30   16   37 1
    31   16   38 1
    32   17   39 1
    33   17   40 1
    34   17   41 1
    35   19   20 1
    36   20   22 1
    37   20   43 1
    38   21   44 1
    39   21   45 1
    40   22   24 ar
    41   22   25 ar
    42   23   26 1
    43   23   27 1
    44   23   28 1
    45   23   29 1
    46   24   30 ar
    47   24   48 1
    48   25   31 ar
    49   25   49 1
    50   27   50 1
    51   27   51 1
    52   27   52 1
    53   28   53 1
    54   28   54 1
    55   28   55 1
    56   29   56 1
    57   29   57 1
    58   29   58 1
    59   30   32 ar
    60   30   59 1
    61   31   32 ar
    62   31   60 1
    63   32   61 1
