@<TRIPOS>MOLECULE
DB01627
   61    62     0     0     0
SMALL
USER_CHARGES

@<TRIPOS>ATOM
      1 S1         -5.2487   -1.4127   -1.3437 S.3       1 <0>        -0.1305
      2 O1         -3.7625   -0.4582    0.7342 O.3       1 <0>        -0.3556
      3 O2         -2.7290    2.2427    0.9272 O.3       1 <0>        -0.3865
      4 O3         -4.2112    3.1916   -1.2203 O.3       1 <0>        -0.3865
      5 O4         -6.4343    1.3931   -1.0199 O.3       1 <0>        -0.3857
      6 O5         -0.1337   -2.0551    2.0227 O.3       1 <0>        -0.3901
      7 O6          0.9944    0.7616    2.1452 O.2       1 <0>        -0.2741
      8 N1          2.7646    2.1537    0.7322 N.3       1 <0>        -0.2943
      9 N2         -0.2006    0.2080    0.2259 N.am      1 <0>        -0.3061
     10 C1          4.2725    0.4279    0.4078 C.3       1 <0>        -0.0264
     11 C2          1.9936    1.1325    0.0135 C.3       1 <0>         0.0873
     12 C3          2.9732   -0.0097   -0.2657 C.3       1 <0>        -0.0248
     13 C4          4.1693    1.9461    0.3735 C.3       1 <0>         0.0022
     14 C5         -2.6121    0.0137    0.0156 C.3       1 <0>         0.1091
     15 C6         -1.3898   -0.2991    0.8732 C.3       1 <0>         0.0774
     16 C7         -2.7344    1.5088   -0.2998 C.3       1 <0>         0.1115
     17 C8          5.5194   -0.1067   -0.2758 C.3       1 <0>        -0.0492
     18 C9         -4.0347    1.7864   -1.0577 C.3       1 <0>         0.1125
     19 C10         0.8910    0.6956    0.9231 C.2       1 <0>         0.2306
     20 C11        -5.2261    1.2165   -0.2880 C.3       1 <0>         0.1188
     21 C12        -1.2631   -1.8005    1.1912 C.3       1 <0>         0.0732
     22 C13        -5.0160   -0.2631    0.0658 C.3       1 <0>         0.1327
     23 C14         2.3188    3.5113    0.4495 C.3       1 <0>        -0.0120
     24 C15         5.5207   -1.6337   -0.3258 C.3       1 <0>        -0.0556
     25 C16        -1.1259   -2.6585   -0.0615 C.3       1 <0>        -0.0371
     26 C17         6.7819   -2.1692   -0.9844 C.3       1 <0>        -0.0653
     27 C18        -5.5252   -2.9180   -0.3873 C.3       1 <0>        -0.0156
     28 H1          4.2598    0.0888    1.4538 H         1 <0>         0.0314
     29 H2          1.5923    1.5109   -0.9355 H         1 <0>         0.0558
     30 H3          3.1129   -0.1046   -1.3499 H         1 <0>         0.0288
     31 H4          2.6334   -0.9778    0.1187 H         1 <0>         0.0288
     32 H5          4.3958    2.3351   -0.6277 H         1 <0>         0.0429
     33 H6          4.8452    2.4133    1.0970 H         1 <0>         0.0429
     34 H7         -2.5404   -0.5190   -0.9394 H         1 <0>         0.0643
     35 H8         -1.4759    0.2089    1.8430 H         1 <0>         0.0550
     36 H9         -1.8873    1.8754   -0.8888 H         1 <0>         0.0647
     37 H10         6.4075    0.2473    0.2620 H         1 <0>         0.0268
     38 H11         5.5914    0.2894   -1.2967 H         1 <0>         0.0268
     39 H12        -3.9950    1.3534   -2.0640 H         1 <0>         0.0647
     40 H13        -5.3476    1.7931    0.6378 H         1 <0>         0.0655
     41 H14        -0.1418    0.1293   -0.7857 H         1 <0>         0.1492
     42 H15        -2.1443   -2.1315    1.7528 H         1 <0>         0.0610
     43 H16        -5.7980   -0.5277    0.7866 H         1 <0>         0.0740
     44 H17         1.2733    3.6442    0.7481 H         1 <0>         0.0391
     45 H18         2.4073    3.7658   -0.6128 H         1 <0>         0.0391
     46 H19         2.9081    4.2333    1.0251 H         1 <0>         0.0391
     47 H20         5.4464   -2.0397    0.6897 H         1 <0>         0.0263
     48 H21         4.6570   -2.0047   -0.8881 H         1 <0>         0.0263
     49 H22        -2.0144   -2.6183   -0.6959 H         1 <0>         0.0255
     50 H23        -0.9703   -3.7077    0.2157 H         1 <0>         0.0255
     51 H24        -0.2517   -2.3693   -0.6544 H         1 <0>         0.0255
     52 H25        -3.3495    1.8175    1.5426 H         1 <0>         0.2100
     53 H26        -3.4346    3.5304   -1.6974 H         1 <0>         0.2100
     54 H27         6.8695   -1.8097   -2.0146 H         1 <0>         0.0230
     55 H28         6.7627   -3.2634   -1.0069 H         1 <0>         0.0230
     56 H29         7.6750   -1.8568   -0.4339 H         1 <0>         0.0230
     57 H30        -7.1552    1.0073   -0.4935 H         1 <0>         0.2100
     58 H31        -0.1316   -3.0034    2.2380 H         1 <0>         0.2098
     59 H32        -5.6674   -3.7574   -1.0733 H         1 <0>         0.0341
     60 H33        -6.4224   -2.8226    0.2299 H         1 <0>         0.0341
     61 H34        -4.6619   -3.1348    0.2472 H         1 <0>         0.0341
@<TRIPOS>BOND
     1    1   22 1
     2    1   27 1
     3    2   14 1
     4    2   22 1
     5    3   16 1
     6    3   52 1
     7    4   18 1
     8    4   53 1
     9    5   20 1
    10    5   57 1
    11    6   21 1
    12    6   58 1
    13    7   19 2
    14    8   11 1
    15    8   13 1
    16    8   23 1
    17    9   15 1
    18    9   19 am
    19    9   41 1
    20   10   12 1
    21   10   13 1
    22   10   17 1
    23   10   28 1
    24   11   12 1
    25   11   19 1
    26   11   29 1
    27   12   30 1
    28   12   31 1
    29   13   32 1
    30   13   33 1
    31   14   15 1
    32   14   16 1
    33   14   34 1
    34   15   21 1
    35   15   35 1
    36   16   18 1
    37   16   36 1
    38   17   24 1
    39   17   37 1
    40   17   38 1
    41   18   20 1
    42   18   39 1
    43   20   22 1
    44   20   40 1
    45   21   25 1
    46   21   42 1
    47   22   43 1
    48   23   44 1
    49   23   45 1
    50   23   46 1
    51   24   26 1
    52   24   47 1
    53   24   48 1
    54   25   49 1
    55   25   50 1
    56   25   51 1
    57   26   54 1
    58   26   55 1
    59   26   56 1
    60   27   59 1
    61   27   60 1
    62   27   61 1
