@<TRIPOS>MOLECULE
DB01240
   57    58     0     0     0
SMALL
USER_CHARGES

@<TRIPOS>ATOM
      1 O1          3.0538    0.3528   -1.4810 O.3       1 <0>        -0.4930
      2 O2          2.4904   -3.2726    0.6507 O.3       1 <0>        -0.3911
      3 O3         -2.4232   -3.3278    2.3232 O.3       1 <0>        -0.3878
      4 O4          3.8649   -0.2528    1.9402 O.3       1 <0>        -0.4806
      5 O5          5.3812    1.3495    1.3940 O.2       1 <0>        -0.2510
      6 C1          1.0941   -0.9649   -1.7970 C.3       1 <0>         0.0115
      7 C2          2.5945   -0.8822   -2.0573 C.3       1 <0>         0.1059
      8 C3          0.9991   -1.7107   -0.4576 C.3       1 <0>         0.0099
      9 C4          2.0786   -2.7833   -0.6142 C.3       1 <0>         0.0652
     10 C5          3.2305   -2.0648   -1.3243 C.3       1 <0>         0.0112
     11 C6          0.6659    0.4831   -1.7610 C.3       1 <0>         0.0114
     12 C7          1.9289    1.1498   -1.3271 C.2       1 <0>         0.0946
     13 C8         -0.3635   -2.2700   -0.2060 C.2       1 <0>        -0.0796
     14 C9          2.0049    2.3678   -0.7824 C.2       1 <0>        -0.0464
     15 C10        -1.1003   -1.9822    0.8770 C.2       1 <0>        -0.0595
     16 C11        -2.4701   -2.5483    1.1266 C.3       1 <0>         0.0734
     17 C12         3.2883    3.0181   -0.3536 C.3       1 <0>        -0.0309
     18 C13        -3.5372   -1.4634    1.3256 C.3       1 <0>        -0.0232
     19 C14         3.2945    3.2916    1.1537 C.3       1 <0>        -0.0394
     20 C15        -3.6317   -0.4861    0.1502 C.3       1 <0>        -0.0504
     21 C16         3.1345    2.0174    1.9781 C.3       1 <0>         0.0451
     22 C17        -4.6404    0.6442    0.3797 C.3       1 <0>        -0.0532
     23 C18        -4.7889    1.5811   -0.8196 C.3       1 <0>        -0.0559
     24 C19         4.2503    1.0317    1.7381 C.2       1 <0>         0.3047
     25 C20        -5.7921    2.6893   -0.5363 C.3       1 <0>        -0.0653
     26 H1          0.5813   -1.5257   -2.5885 H         1 <0>         0.0347
     27 H2          2.8399   -0.8745   -3.1253 H         1 <0>         0.0736
     28 H3          1.2774   -1.0493    0.3757 H         1 <0>         0.0372
     29 H4          1.7229   -3.6275   -1.2180 H         1 <0>         0.0600
     30 H5          4.0096   -1.7450   -0.6233 H         1 <0>         0.0326
     31 H6          3.6981   -2.7535   -2.0371 H         1 <0>         0.0326
     32 H7          0.3981    0.8272   -2.7661 H         1 <0>         0.0347
     33 H8         -0.1744    0.6636   -1.0845 H         1 <0>         0.0347
     34 H9         -0.7684   -2.9473   -0.9544 H         1 <0>         0.0573
     35 H10         3.2273   -3.8885    0.4988 H         1 <0>         0.2098
     36 H11         1.0940    2.9485   -0.6573 H         1 <0>         0.0605
     37 H12        -0.6996   -1.3104    1.6325 H         1 <0>         0.0594
     38 H13        -2.7810   -3.2126    0.3116 H         1 <0>         0.0637
     39 H14         4.1654    2.4325   -0.6471 H         1 <0>         0.0309
     40 H15         3.3774    3.9747   -0.8829 H         1 <0>         0.0309
     41 H16        -3.3251   -0.9071    2.2487 H         1 <0>         0.0293
     42 H17        -4.5103   -1.9429    1.4921 H         1 <0>         0.0293
     43 H18         4.2336    3.7933    1.4172 H         1 <0>         0.0273
     44 H19         2.4841    3.9855    1.4094 H         1 <0>         0.0273
     45 H20        -3.9095   -1.0416   -0.7540 H         1 <0>         0.0266
     46 H21        -2.6551   -0.0289   -0.0456 H         1 <0>         0.0266
     47 H22        -1.7826   -4.0461    2.1821 H         1 <0>         0.2102
     48 H23        -4.3325    1.2242    1.2586 H         1 <0>         0.0265
     49 H24        -5.6184    0.2068    0.6165 H         1 <0>         0.0265
     50 H25         3.1452    2.2680    3.0448 H         1 <0>         0.0378
     51 H26         2.1741    1.5357    1.7663 H         1 <0>         0.0378
     52 H27        -3.8178    2.0265   -1.0647 H         1 <0>         0.0263
     53 H28        -5.1164    1.0118   -1.6972 H         1 <0>         0.0263
     54 H29        -6.7817    2.2761   -0.3169 H         1 <0>         0.0230
     55 H30        -5.4754    3.2962    0.3180 H         1 <0>         0.0230
     56 H31        -5.8840    3.3480   -1.4055 H         1 <0>         0.0230
     57 H32         4.5966   -0.8852    1.7766 H         1 <0>         0.2951
@<TRIPOS>BOND
     1    1    7 1
     2    1   12 1
     3    2    9 1
     4    2   35 1
     5    3   16 1
     6    3   47 1
     7    4   24 1
     8    4   57 1
     9    5   24 2
    10    6    7 1
    11    6    8 1
    12    6   11 1
    13    6   26 1
    14    7   10 1
    15    7   27 1
    16    8    9 1
    17    8   13 1
    18    8   28 1
    19    9   10 1
    20    9   29 1
    21   10   30 1
    22   10   31 1
    23   11   12 1
    24   11   32 1
    25   11   33 1
    26   12   14 2
    27   13   15 2
    28   13   34 1
    29   14   17 1
    30   14   36 1
    31   15   16 1
    32   15   37 1
    33   16   18 1
    34   16   38 1
    35   17   19 1
    36   17   39 1
    37   17   40 1
    38   18   20 1
    39   18   41 1
    40   18   42 1
    41   19   21 1
    42   19   43 1
    43   19   44 1
    44   20   22 1
    45   20   45 1
    46   20   46 1
    47   21   24 1
    48   21   50 1
    49   21   51 1
    50   22   23 1
    51   22   48 1
    52   22   49 1
    53   23   25 1
    54   23   52 1
    55   23   53 1
    56   25   54 1
    57   25   55 1
    58   25   56 1
