@<TRIPOS>MOLECULE
DB01084
   48    50     0     0     0
SMALL
USER_CHARGES

@<TRIPOS>ATOM
      1 O1          0.1396   -2.9510    0.5515 O.3       1 <0>        -0.3783
      2 N1         -0.2724    1.5634   -0.0829 N.pl3     1 <0>        -0.2997
      3 N2         -3.4903    1.2674   -0.6087 N.3       1 <0>        -0.3038
      4 N3          1.7463    0.3750    0.3424 N.pl3     1 <0>        -0.3095
      5 N4          1.9628    2.3675   -0.6186 N.2       1 <0>        -0.2143
      6 C1         -0.9197    2.1480    1.0949 C.3       1 <0>         0.0160
      7 C2         -1.0824    1.0676   -1.1992 C.3       1 <0>         0.0276
      8 C3         -2.1855    2.9370    0.7648 C.3       1 <0>        -0.0243
      9 C4         -2.3578    0.3452   -0.7548 C.3       1 <0>         0.0144
     10 C5         -3.4326    2.0615    0.6234 C.3       1 <0>         0.0001
     11 C6          1.1069    1.4860   -0.1414 C.cat     1 <0>         0.1993
     12 C7          3.0947    0.5519    0.1665 C.ar      1 <0>         0.0701
     13 C8          1.1216   -0.7864    0.9375 C.3       1 <0>         0.0498
     14 C9          3.2041    1.8027   -0.4349 C.ar      1 <0>         0.0909
     15 C10        -4.7548    0.5256   -0.6526 C.3       1 <0>        -0.0127
     16 C11         0.7836   -1.8579   -0.0903 C.3       1 <0>         0.0656
     17 C12         4.1946   -0.2501    0.4728 C.ar      1 <0>        -0.0360
     18 C13         4.4787    2.2984   -0.7574 C.ar      1 <0>        -0.0342
     19 C14         5.4556    0.2590    0.1450 C.ar      1 <0>        -0.0597
     20 C15         5.5972    1.5103   -0.4591 C.ar      1 <0>        -0.0596
     21 C16        -0.1939   -3.9761   -0.3745 C.3       1 <0>         0.0449
     22 C17        -0.8741   -5.1075    0.3664 C.3       1 <0>        -0.0416
     23 H1         -0.2159    2.8397    1.5768 H         1 <0>         0.0465
     24 H2         -1.1358    1.3657    1.8313 H         1 <0>         0.0465
     25 H3         -0.4874    0.3801   -1.8122 H         1 <0>         0.0477
     26 H4         -1.3234    1.9046   -1.8679 H         1 <0>         0.0477
     27 H5         -2.3714    3.6278    1.5978 H         1 <0>         0.0293
     28 H6         -2.0444    3.5617   -0.1257 H         1 <0>         0.0293
     29 H7         -2.5943   -0.3626   -1.5609 H         1 <0>         0.0442
     30 H8         -2.1975   -0.2577    0.1481 H         1 <0>         0.0442
     31 H9         -3.5292    1.4173    1.5077 H         1 <0>         0.0427
     32 H10        -4.2966    2.7391    0.6355 H         1 <0>         0.0427
     33 H11         1.7947   -1.1903    1.7027 H         1 <0>         0.0515
     34 H12         0.2246   -0.4781    1.4826 H         1 <0>         0.0515
     35 H13        -4.8323   -0.2050    0.1608 H         1 <0>         0.0391
     36 H14        -4.8589   -0.0052   -1.6057 H         1 <0>         0.0391
     37 H15        -5.6084    1.2098   -0.5864 H         1 <0>         0.0391
     38 H16         0.1262   -1.4655   -0.8689 H         1 <0>         0.0577
     39 H17         1.7025   -2.2115   -0.5742 H         1 <0>         0.0577
     40 H18         4.0899   -1.2232    0.9388 H         1 <0>         0.0639
     41 H19         4.5993    3.2695   -1.2269 H         1 <0>         0.0639
     42 H20         6.3417   -0.3315    0.3644 H         1 <0>         0.0618
     43 H21         6.5905    1.8791   -0.7022 H         1 <0>         0.0618
     44 H22        -0.8699   -3.5787   -1.1401 H         1 <0>         0.0557
     45 H23         0.7152   -4.3474   -0.8605 H         1 <0>         0.0557
     46 H24        -1.1454   -5.9158   -0.3182 H         1 <0>         0.0252
     47 H25        -0.2166   -5.5091    1.1445 H         1 <0>         0.0252
     48 H26        -1.7795   -4.7505    0.8681 H         1 <0>         0.0252
@<TRIPOS>BOND
     1    1   16 1
     2    1   21 1
     3    2    6 1
     4    2    7 1
     5    2   11 1
     6    3    9 1
     7    3   10 1
     8    3   15 1
     9    4   11 1
    10    4   12 2
    11    4   13 1
    12    5   11 1
    13    5   14 2
    14    6    8 1
    15    6   23 1
    16    6   24 1
    17    7    9 1
    18    7   25 1
    19    7   26 1
    20    8   10 1
    21    8   27 1
    22    8   28 1
    23    9   29 1
    24    9   30 1
    25   10   31 1
    26   10   32 1
    27   12   14 ar
    28   12   17 ar
    29   13   16 1
    30   13   33 1
    31   13   34 1
    32   14   18 ar
    33   15   35 1
    34   15   36 1
    35   15   37 1
    36   16   38 1
    37   16   39 1
    38   17   19 ar
    39   17   40 1
    40   18   20 ar
    41   18   41 1
    42   19   20 ar
    43   19   42 1
    44   20   43 1
    45   21   22 1
    46   21   44 1
    47   21   45 1
    48   22   46 1
    49   22   47 1
    50   22   48 1
