@<TRIPOS>MOLECULE
DB01041
   29    31     0     0     0
SMALL
USER_CHARGES

@<TRIPOS>ATOM
      1 O1          1.2818    0.3553   -2.4124 O.2       1 <0>        -0.2733
      2 O2         -0.7900   -2.5641   -0.4404 O.2       1 <0>        -0.2695
      3 O3         -0.0929    1.9679    0.2234 O.2       1 <0>        -0.2695
      4 O4          5.3238    0.7656   -0.2448 O.2       1 <0>        -0.2754
      5 N1         -0.0169   -0.3623   -0.1219 N.am      1 <0>        -0.2220
      6 N2          3.2776    0.5679   -1.2871 N.am      1 <0>        -0.2548
      7 C1          1.4052   -0.5733   -0.1837 C.3       1 <0>         0.1109
      8 C2          2.0807   -0.1121    1.0974 C.3       1 <0>        -0.0170
      9 C3          3.5792   -0.3233    0.9817 C.3       1 <0>         0.0265
     10 C4          1.9437    0.1748   -1.3904 C.2       1 <0>         0.2402
     11 C5         -0.9471   -1.3720   -0.2534 C.2       1 <0>         0.2545
     12 C6         -0.5998    0.8715    0.0753 C.2       1 <0>         0.2545
     13 C7         -2.2523   -0.7265   -0.1183 C.ar      1 <0>         0.0494
     14 C8         -2.0424    0.6301    0.0805 C.ar      1 <0>         0.0494
     15 C9          4.1488    0.4004   -0.2151 C.2       1 <0>         0.2193
     16 C10        -3.5195   -1.2701   -0.1653 C.ar      1 <0>        -0.0489
     17 C11        -3.0888    1.5148    0.2425 C.ar      1 <0>        -0.0489
     18 C12        -4.5954   -0.3926   -0.0028 C.ar      1 <0>        -0.0610
     19 C13        -4.3821    0.9864    0.1990 C.ar      1 <0>        -0.0610
     20 H1          1.6058   -1.6392   -0.3492 H         1 <0>         0.0602
     21 H2          1.6913   -0.6712    1.9565 H         1 <0>         0.0293
     22 H3          1.8939    0.9492    1.2976 H         1 <0>         0.0293
     23 H4          3.8171   -1.3881    0.8803 H         1 <0>         0.0359
     24 H5          4.0746    0.0523    1.8836 H         1 <0>         0.0359
     25 H6          3.6617    1.0440   -2.0989 H         1 <0>         0.1575
     26 H7         -3.6838   -2.3297   -0.3208 H         1 <0>         0.0625
     27 H8         -2.9252    2.5748    0.3972 H         1 <0>         0.0625
     28 H9         -5.6119   -0.7765   -0.0326 H         1 <0>         0.0618
     29 H10        -5.2371    1.6460    0.3221 H         1 <0>         0.0618
@<TRIPOS>BOND
     1    1   10 2
     2    2   11 2
     3    3   12 2
     4    4   15 2
     5    5    7 1
     6    5   11 am
     7    5   12 am
     8    6   10 am
     9    6   15 am
    10    6   25 1
    11    7    8 1
    12    7   10 1
    13    7   20 1
    14    8    9 1
    15    8   21 1
    16    8   22 1
    17    9   15 1
    18    9   23 1
    19    9   24 1
    20   11   13 1
    21   12   14 1
    22   13   14 ar
    23   13   16 ar
    24   14   17 ar
    25   16   18 ar
    26   16   26 1
    27   17   19 ar
    28   17   27 1
    29   18   19 ar
    30   18   28 1
    31   19   29 1
