@<TRIPOS>MOLECULE
DB01070
   75    77     0     0     0
SMALL
USER_CHARGES

@<TRIPOS>ATOM
      1 O1         -4.8871   -2.2318    1.9965 O.3       1 <0>        -0.3915
      2 C1          0.3245    1.3699   -0.0329 C.3       1 <0>        -0.0222
      3 C2          1.6923    0.8782   -0.5660 C.3       1 <0>        -0.0291
      4 C3         -0.6037    0.7640   -1.1145 C.3       1 <0>        -0.0139
      5 C4          1.4150   -0.5725   -1.0233 C.3       1 <0>        -0.0486
      6 C5         -0.1064   -0.6777   -1.2373 C.3       1 <0>        -0.0457
      7 C6          0.1518    2.9023   -0.0442 C.3       1 <0>        -0.0465
      8 C7          2.8705    0.9829    0.3916 C.3       1 <0>        -0.0224
      9 C8         -2.0461    1.1006   -0.8494 C.2       1 <0>        -0.0659
     10 C9          0.0424    0.8251    1.3909 C.3       1 <0>        -0.0587
     11 C10        -1.3167    3.3113    0.1707 C.3       1 <0>        -0.0488
     12 C11        -2.2930    2.5936   -0.7756 C.3       1 <0>        -0.0312
     13 C12         3.1025    2.4360    0.8130 C.3       1 <0>        -0.0587
     14 C13        -3.0315    0.2052   -0.6973 C.2       1 <0>        -0.0623
     15 C14         4.1190    0.4263   -0.2490 C.2       1 <0>        -0.0846
     16 C15        -4.4037    0.5731   -0.4518 C.2       1 <0>        -0.0622
     17 C16         4.8080   -0.6163    0.2404 C.2       1 <0>        -0.0846
     18 C17        -5.3901   -0.3241   -0.2995 C.2       1 <0>        -0.0643
     19 C18         6.0517   -1.1828   -0.4093 C.3       1 <0>        -0.0234
     20 C19        -6.8146    0.0967    0.0000 C.3       1 <0>        -0.0223
     21 C20        -5.1310   -1.8108   -0.3752 C.3       1 <0>        -0.0051
     22 C21        -7.3410   -0.6571    1.2329 C.3       1 <0>        -0.0444
     23 C22         7.2781   -1.0940    0.5430 C.3       1 <0>        -0.0407
     24 C23        -5.6819   -2.5426    0.8525 C.3       1 <0>         0.0589
     25 C24        -7.1374   -2.1732    1.1450 C.3       1 <0>        -0.0260
     26 C25         5.7485   -2.6218   -0.8430 C.3       1 <0>        -0.0587
     27 C26        -7.7193   -0.0999   -1.2200 C.3       1 <0>        -0.0587
     28 C27         7.5824    0.3490    0.9628 C.3       1 <0>        -0.0621
     29 C28         8.5379   -1.6956   -0.0971 C.3       1 <0>        -0.0621
     30 H1          1.9320    1.4556   -1.4734 H         1 <0>         0.0312
     31 H2         -0.3708    1.2388   -2.0828 H         1 <0>         0.0351
     32 H3          1.7282   -1.3132   -0.2786 H         1 <0>         0.0268
     33 H4          1.9521   -0.7933   -1.9528 H         1 <0>         0.0268
     34 H5         -0.3452   -1.1095   -2.2148 H         1 <0>         0.0271
     35 H6         -0.5399   -1.3322   -0.4728 H         1 <0>         0.0271
     36 H7          0.4923    3.3121   -1.0038 H         1 <0>         0.0271
     37 H8          0.7302    3.3995    0.7348 H         1 <0>         0.0271
     38 H9          2.6691    0.4031    1.3014 H         1 <0>         0.0343
     39 H10        -1.0064    0.9440    1.6795 H         1 <0>         0.0235
     40 H11         0.2727   -0.2413    1.4829 H         1 <0>         0.0235
     41 H12         0.6369    1.3507    2.1450 H         1 <0>         0.0235
     42 H13        -1.4101    4.3949    0.0298 H         1 <0>         0.0268
     43 H14        -1.6072    3.1121    1.2093 H         1 <0>         0.0268
     44 H15        -2.1505    2.9994   -1.7867 H         1 <0>         0.0310
     45 H16        -3.2947    2.9006   -0.4787 H         1 <0>         0.0310
     46 H17         3.0062    3.1341   -0.0252 H         1 <0>         0.0235
     47 H18         4.1149    2.5626    1.2176 H         1 <0>         0.0235
     48 H19         2.4322    2.7315    1.6229 H         1 <0>         0.0235
     49 H20        -2.7500   -0.8329   -0.7843 H         1 <0>         0.0617
     50 H21         4.4634    0.9099   -1.1605 H         1 <0>         0.0572
     51 H22        -4.6904    1.6131   -0.3773 H         1 <0>         0.0617
     52 H23         4.4654   -1.1012    1.1519 H         1 <0>         0.0572
     53 H24         6.2790   -0.6075   -1.3174 H         1 <0>         0.0343
     54 H25        -6.8419    1.1674    0.2441 H         1 <0>         0.0343
     55 H26        -5.6377   -2.1946   -1.2703 H         1 <0>         0.0335
     56 H27        -4.0892   -2.1071   -0.4807 H         1 <0>         0.0335
     57 H28        -8.4060   -0.4410    1.3811 H         1 <0>         0.0272
     58 H29        -6.8241   -0.2825    2.1264 H         1 <0>         0.0272
     59 H30         7.0640   -1.6670    1.4556 H         1 <0>         0.0301
     60 H31        -5.6132   -3.6256    0.6980 H         1 <0>         0.0596
     61 H32        -7.4494   -2.6207    2.0963 H         1 <0>         0.0290
     62 H33        -7.7853   -2.5870    0.3638 H         1 <0>         0.0290
     63 H34         6.5426   -3.0203   -1.4820 H         1 <0>         0.0235
     64 H35         4.8196   -2.6714   -1.4237 H         1 <0>         0.0235
     65 H36         5.6397   -3.2864    0.0215 H         1 <0>         0.0235
     66 H37        -8.7362    0.2448   -1.0024 H         1 <0>         0.0235
     67 H38        -7.3495    0.4784   -2.0741 H         1 <0>         0.0235
     68 H39        -7.7830   -1.1473   -1.5306 H         1 <0>         0.0235
     69 H40         8.4714    0.3895    1.6017 H         1 <0>         0.0233
     70 H41         7.7658    0.9843    0.0894 H         1 <0>         0.0233
     71 H42         6.7571    0.7846    1.5344 H         1 <0>         0.0233
     72 H43         8.7574   -1.2226   -1.0602 H         1 <0>         0.0233
     73 H44         9.4088   -1.5576    0.5531 H         1 <0>         0.0233
     74 H45         8.4299   -2.7724   -0.2578 H         1 <0>         0.0233
     75 H46        -3.9713   -2.4901    1.7966 H         1 <0>         0.2098
@<TRIPOS>BOND
     1    1   24 1
     2    1   75 1
     3    2    3 1
     4    2    4 1
     5    2    7 1
     6    2   10 1
     7    3    5 1
     8    3    8 1
     9    3   30 1
    10    4    6 1
    11    4    9 1
    12    4   31 1
    13    5    6 1
    14    5   32 1
    15    5   33 1
    16    6   34 1
    17    6   35 1
    18    7   11 1
    19    7   36 1
    20    7   37 1
    21    8   13 1
    22    8   15 1
    23    8   38 1
    24    9   12 1
    25    9   14 2
    26   10   39 1
    27   10   40 1
    28   10   41 1
    29   11   12 1
    30   11   42 1
    31   11   43 1
    32   12   44 1
    33   12   45 1
    34   13   46 1
    35   13   47 1
    36   13   48 1
    37   14   16 1
    38   14   49 1
    39   15   17 2
    40   15   50 1
    41   16   18 2
    42   16   51 1
    43   17   19 1
    44   17   52 1
    45   18   20 1
    46   18   21 1
    47   19   23 1
    48   19   26 1
    49   19   53 1
    50   20   22 1
    51   20   27 1
    52   20   54 1
    53   21   24 1
    54   21   55 1
    55   21   56 1
    56   22   25 1
    57   22   57 1
    58   22   58 1
    59   23   28 1
    60   23   29 1
    61   23   59 1
    62   24   25 1
    63   24   60 1
    64   25   61 1
    65   25   62 1
    66   26   63 1
    67   26   64 1
    68   26   65 1
    69   27   66 1
    70   27   67 1
    71   27   68 1
    72   28   69 1
    73   28   70 1
    74   28   71 1
    75   29   72 1
    76   29   73 1
    77   29   74 1
