@<TRIPOS>MOLECULE
DB01173
   43    44     0     0     0
SMALL
USER_CHARGES

@<TRIPOS>ATOM
      1 O1         -0.1936    1.0514   -0.0216 O.3       1 <0>        -0.3661
      2 N1         -3.8378    0.5777    0.2641 N.3       1 <0>        -0.3062
      3 C1          0.9016    0.2446   -0.4325 C.3       1 <0>         0.1089
      4 C2          0.9493   -1.0679    0.3254 C.ar      1 <0>        -0.0116
      5 C3          2.1927    1.0300   -0.3325 C.ar      1 <0>        -0.0145
      6 C4         -1.4233    0.3427   -0.1036 C.3       1 <0>         0.0616
      7 C5          0.7543   -2.2633   -0.3426 C.ar      1 <0>        -0.0445
      8 C6         -2.5475    1.2610    0.3485 C.3       1 <0>         0.0218
      9 C7          1.1909   -1.0283    1.6876 C.ar      1 <0>        -0.0555
     10 C8          3.2275    0.7405   -1.2042 C.ar      1 <0>        -0.0558
     11 C9          2.3077    2.0196    0.6277 C.ar      1 <0>        -0.0558
     12 C10         0.8024   -3.4589    0.3746 C.ar      1 <0>        -0.0585
     13 C11         0.4923   -2.3098   -1.8122 C.3       1 <0>        -0.0394
     14 C12         1.2391   -2.2238    2.4044 C.ar      1 <0>        -0.0614
     15 C13         1.0448   -3.4390    1.7481 C.ar      1 <0>        -0.0615
     16 C14         4.4165    1.4640   -1.1123 C.ar      1 <0>        -0.0614
     17 C15         3.4968    2.7430    0.7193 C.ar      1 <0>        -0.0614
     18 C16        -4.0882    0.1259   -1.1041 C.3       1 <0>        -0.0130
     19 C17        -4.9134    1.4591    0.7162 C.3       1 <0>        -0.0130
     20 C18         4.5512    2.4652   -0.1506 C.ar      1 <0>        -0.0617
     21 H1          0.7470    0.0909   -1.5059 H         1 <0>         0.0697
     22 H2         -1.5509    0.0415   -1.1468 H         1 <0>         0.0573
     23 H3         -1.4335   -0.5422    0.5405 H         1 <0>         0.0573
     24 H4         -2.3494    1.5689    1.3833 H         1 <0>         0.0449
     25 H5         -2.5347    2.1822   -0.2500 H         1 <0>         0.0449
     26 H6          1.3271   -0.0958    2.2250 H         1 <0>         0.0621
     27 H7          3.1339   -0.0374   -1.9560 H         1 <0>         0.0621
     28 H8          1.5042    2.2523    1.3199 H         1 <0>         0.0621
     29 H9          0.6525   -4.4147   -0.1207 H         1 <0>         0.0620
     30 H10         1.3311   -1.8858   -2.3734 H         1 <0>         0.0278
     31 H11        -0.4338   -1.7875   -2.0681 H         1 <0>         0.0278
     32 H12         0.3745   -3.3418   -2.1625 H         1 <0>         0.0278
     33 H13         1.4236   -2.2084    3.4747 H         1 <0>         0.0618
     34 H14         1.0811   -4.3697    2.3068 H         1 <0>         0.0618
     35 H15         5.2376    1.2475   -1.7893 H         1 <0>         0.0618
     36 H16         3.6025    3.5219    1.4689 H         1 <0>         0.0618
     37 H17        -5.1206   -0.2316   -1.2041 H         1 <0>         0.0391
     38 H18        -3.4693   -0.7370   -1.3694 H         1 <0>         0.0391
     39 H19        -3.9422    0.9215   -1.8439 H         1 <0>         0.0391
     40 H20        -5.8735    0.9310    0.7103 H         1 <0>         0.0391
     41 H21        -5.0073    2.3533    0.0894 H         1 <0>         0.0391
     42 H22        -4.7404    1.7790    1.7499 H         1 <0>         0.0391
     43 H23         5.4771    3.0282   -0.0788 H         1 <0>         0.0618
@<TRIPOS>BOND
     1    1    3 1
     2    1    6 1
     3    2    8 1
     4    2   18 1
     5    2   19 1
     6    3    4 1
     7    3    5 1
     8    3   21 1
     9    4    7 ar
    10    4    9 ar
    11    5   10 ar
    12    5   11 ar
    13    6    8 1
    14    6   22 1
    15    6   23 1
    16    7   12 ar
    17    7   13 1
    18    8   24 1
    19    8   25 1
    20    9   14 ar
    21    9   26 1
    22   10   16 ar
    23   10   27 1
    24   11   17 ar
    25   11   28 1
    26   12   15 ar
    27   12   29 1
    28   13   30 1
    29   13   31 1
    30   13   32 1
    31   14   15 ar
    32   14   33 1
    33   15   34 1
    34   16   20 ar
    35   16   35 1
    36   17   20 ar
    37   17   36 1
    38   18   37 1
    39   18   38 1
    40   18   39 1
    41   19   40 1
    42   19   41 1
    43   19   42 1
    44   20   43 1
