@<TRIPOS>MOLECULE
DB01367
   26    27     0     0     0
SMALL
USER_CHARGES

@<TRIPOS>ATOM
      1 N1         -1.5888    0.4706    0.0409 N.3       1 <0>        -0.2989
      2 C1         -0.4535   -0.2493   -0.5136 C.3       1 <0>         0.0342
      3 C2         -0.2918   -1.6305    0.1549 C.3       1 <0>        -0.0294
      4 C3          1.1955   -1.9936    0.0343 C.3       1 <0>        -0.0257
      5 C4          0.8869    0.3629   -0.2190 C.ar      1 <0>        -0.0273
      6 C5          1.8232   -0.6355    0.0866 C.ar      1 <0>        -0.0426
      7 C6          1.2680    1.6945   -0.2801 C.ar      1 <0>        -0.0568
      8 C7          3.1480   -0.3236    0.3437 C.ar      1 <0>        -0.0583
      9 C8         -2.8417   -0.1987   -0.2846 C.3       1 <0>         0.0586
     10 C9          2.5995    2.0193   -0.0089 C.ar      1 <0>        -0.0614
     11 C10         3.5323    1.0177    0.3015 C.ar      1 <0>        -0.0615
     12 C11        -3.9841    0.5218    0.2863 C.1       1 <0>        -0.0902
     13 C12        -4.9231    1.1080    0.7512 C.1       1 <0>        -0.1179
     14 H1         -0.5432   -0.3582   -1.6027 H         1 <0>         0.0510
     15 H2         -0.9274   -2.3999   -0.2964 H         1 <0>         0.0287
     16 H3         -0.5512   -1.5777    1.2231 H         1 <0>         0.0287
     17 H4          1.4116   -2.4730   -0.9258 H         1 <0>         0.0314
     18 H5          1.5175   -2.6368    0.8579 H         1 <0>         0.0314
     19 H6         -1.6081    1.4149   -0.3454 H         1 <0>         0.1234
     20 H7          0.5588    2.4741   -0.5368 H         1 <0>         0.0621
     21 H8          3.8734   -1.0976    0.5701 H         1 <0>         0.0620
     22 H9         -2.9665   -0.2660   -1.3719 H         1 <0>         0.0561
     23 H10        -2.8639   -1.2183    0.1147 H         1 <0>         0.0561
     24 H11         2.9195    3.0572   -0.0464 H         1 <0>         0.0618
     25 H12         4.5650    1.2897    0.5027 H         1 <0>         0.0618
     26 H13        -5.7559    1.6280    1.1636 H         1 <0>         0.1228
@<TRIPOS>BOND
     1    1    2 1
     2    1    9 1
     3    1   19 1
     4    2    3 1
     5    2    5 1
     6    2   14 1
     7    3    4 1
     8    3   15 1
     9    3   16 1
    10    4    6 1
    11    4   17 1
    12    4   18 1
    13    5    6 ar
    14    5    7 ar
    15    6    8 ar
    16    7   10 ar
    17    7   20 1
    18    8   11 ar
    19    8   21 1
    20    9   12 1
    21    9   22 1
    22    9   23 1
    23   10   11 ar
    24   10   24 1
    25   11   25 1
    26   12   13 3
    27   13   26 1
