@<TRIPOS>MOLECULE
DB01172
   69    71     0     0     0
SMALL
USER_CHARGES

@<TRIPOS>ATOM
      1 O1         -2.6122    0.8092    0.2672 O.3       1 <0>        -0.3413
      2 O2          2.1129    0.1508    0.7540 O.3       1 <0>        -0.3413
      3 O3         -0.2954   -0.7876   -0.4348 O.3       1 <0>        -0.3865
      4 O4         -3.2106   -0.7799   -1.3848 O.3       1 <0>        -0.3406
      5 O5          3.6405   -0.4140   -0.9687 O.3       1 <0>        -0.3415
      6 O6         -5.1032    2.0048    0.0329 O.3       1 <0>        -0.3851
      7 O7          1.8467   -2.5644    1.4112 O.3       1 <0>        -0.3841
      8 O8         -5.2181   -2.7242    1.0152 O.3       1 <0>        -0.3875
      9 O9          4.6081   -3.3555    1.7630 O.3       1 <0>        -0.3864
     10 O10         6.4235   -1.1722    1.3267 O.3       1 <0>        -0.3865
     11 O11        -1.7958   -3.1084   -1.5097 O.3       1 <0>        -0.3924
     12 N1         -2.2335    3.6540   -0.0692 N.3       1 <0>        -0.3250
     13 N2          2.5781    3.0011    0.4590 N.3       1 <0>        -0.3250
     14 N3         -6.7996   -0.3074    0.7468 N.3       1 <0>        -0.3229
     15 N4          5.4184    1.5767   -1.8471 N.3       1 <0>        -0.3276
     16 C1         -1.3548    1.3598   -0.1343 C.3       1 <0>         0.1051
     17 C2          1.1567    1.0219    0.1426 C.3       1 <0>         0.1051
     18 C3         -0.2389    0.4184    0.3332 C.3       1 <0>         0.1104
     19 C4         -1.2206    2.7549    0.4906 C.3       1 <0>         0.0355
     20 C5          1.2687    2.4196    0.7653 C.3       1 <0>         0.0355
     21 C6          0.1692    3.3481    0.2423 C.3       1 <0>        -0.0175
     22 C7         -3.4372    0.5294   -0.8623 C.3       1 <0>         0.1874
     23 C8          2.5503   -0.8557   -0.1572 C.3       1 <0>         0.1883
     24 C9         -4.9137    0.6979   -0.4976 C.3       1 <0>         0.1234
     25 C10        -5.3529   -0.3740    0.5087 C.3       1 <0>         0.0647
     26 C11         2.9028   -2.1691    0.5431 C.3       1 <0>         0.1341
     27 C12        -4.9841   -1.7707   -0.0184 C.3       1 <0>         0.1012
     28 C13         4.1985   -2.0518    1.3432 C.3       1 <0>         0.1140
     29 C14        -3.5102   -1.8237   -0.4515 C.3       1 <0>         0.1120
     30 C15         5.3115   -1.4539    0.4801 C.3       1 <0>         0.1109
     31 C16         4.8406   -0.1744   -0.2246 C.3       1 <0>         0.1023
     32 C17         5.8791    0.3516   -1.2115 C.3       1 <0>         0.0222
     33 C18        -3.1602   -3.1438   -1.1338 C.3       1 <0>         0.0730
     34 H1         -1.2815    1.4460   -1.2283 H         1 <0>         0.0639
     35 H2          1.3752    1.1079   -0.9331 H         1 <0>         0.0639
     36 H3         -0.3926    0.1209    1.3773 H         1 <0>         0.0646
     37 H4         -1.4000    2.6873    1.5715 H         1 <0>         0.0485
     38 H5          1.1907    2.3366    1.8568 H         1 <0>         0.0485
     39 H6          0.2472    4.3270    0.7344 H         1 <0>         0.0297
     40 H7          0.3115    3.5247   -0.8335 H         1 <0>         0.0297
     41 H8         -3.2368    1.2466   -1.6683 H         1 <0>         0.0937
     42 H9          1.7767   -1.1072   -0.8801 H         1 <0>         0.0938
     43 H10        -5.5237    0.6023   -1.4060 H         1 <0>         0.0660
     44 H11        -4.8683   -0.1951    1.4772 H         1 <0>         0.0512
     45 H12         3.0256   -2.9614   -0.2065 H         1 <0>         0.0671
     46 H13        -5.6267   -2.0256   -0.8708 H         1 <0>         0.0636
     47 H14         4.0438   -1.4678    2.2579 H         1 <0>         0.0648
     48 H15        -2.8501   -1.7157    0.4190 H         1 <0>         0.0646
     49 H16        -2.1494    4.5744    0.3607 H         1 <0>         0.1185
     50 H17        -3.1605    3.3100    0.1749 H         1 <0>         0.1185
     51 H18         2.6607    3.9136    0.9055 H         1 <0>         0.1185
     52 H19         3.3109    2.4184    0.8604 H         1 <0>         0.1185
     53 H20         5.6427   -2.1941   -0.2583 H         1 <0>         0.0646
     54 H21         4.6535    0.6081    0.5224 H         1 <0>         0.0636
     55 H22        -0.3139   -0.5461   -1.3766 H         1 <0>         0.2100
     56 H23         6.8283    0.5495   -0.7030 H         1 <0>         0.0448
     57 H24         6.0648   -0.3928   -1.9946 H         1 <0>         0.0448
     58 H25        -3.7536   -3.2812   -2.0438 H         1 <0>         0.0584
     59 H26        -3.3215   -3.9945   -0.4646 H         1 <0>         0.0584
     60 H27        -7.0391    0.6056    1.1310 H         1 <0>         0.1186
     61 H28        -7.0608   -0.9965    1.4509 H         1 <0>         0.1186
     62 H29        -4.9508    2.6357   -0.6913 H         1 <0>         0.2101
     63 H30         1.0338   -2.6142    0.8798 H         1 <0>         0.2101
     64 H31        -4.6326   -2.5082    1.7608 H         1 <0>         0.2100
     65 H32         4.7424   -3.9014    0.9695 H         1 <0>         0.2100
     66 H33         6.1501   -0.4922    1.9657 H         1 <0>         0.2100
     67 H34         6.0917    1.8668   -2.5548 H         1 <0>         0.1183
     68 H35         4.5429    1.4007   -2.3386 H         1 <0>         0.1183
     69 H36        -1.5952   -3.9554   -1.9431 H         1 <0>         0.2095
@<TRIPOS>BOND
     1    1   16 1
     2    1   22 1
     3    2   17 1
     4    2   23 1
     5    3   18 1
     6    3   55 1
     7    4   22 1
     8    4   29 1
     9    5   23 1
    10    5   31 1
    11    6   24 1
    12    6   62 1
    13    7   26 1
    14    7   63 1
    15    8   27 1
    16    8   64 1
    17    9   28 1
    18    9   65 1
    19   10   30 1
    20   10   66 1
    21   11   33 1
    22   11   69 1
    23   12   19 1
    24   12   49 1
    25   12   50 1
    26   13   20 1
    27   13   51 1
    28   13   52 1
    29   14   25 1
    30   14   60 1
    31   14   61 1
    32   15   32 1
    33   15   67 1
    34   15   68 1
    35   16   18 1
    36   16   19 1
    37   16   34 1
    38   17   18 1
    39   17   20 1
    40   17   35 1
    41   18   36 1
    42   19   21 1
    43   19   37 1
    44   20   21 1
    45   20   38 1
    46   21   39 1
    47   21   40 1
    48   22   24 1
    49   22   41 1
    50   23   26 1
    51   23   42 1
    52   24   25 1
    53   24   43 1
    54   25   27 1
    55   25   44 1
    56   26   28 1
    57   26   45 1
    58   27   29 1
    59   27   46 1
    60   28   30 1
    61   28   47 1
    62   29   33 1
    63   29   48 1
    64   30   31 1
    65   30   53 1
    66   31   32 1
    67   31   54 1
    68   32   56 1
    69   32   57 1
    70   33   58 1
    71   33   59 1
