@<TRIPOS>MOLECULE
DB01124
   36    36     0     0     0
SMALL
USER_CHARGES

@<TRIPOS>ATOM
      1 S1         -1.4761    2.8934   -0.1654 S.o2      1 <0>         0.0756
      2 O1         -1.4745    3.5043    1.1498 O.2       1 <0>        -0.1499
      3 O2         -2.0377    3.5969   -1.3023 O.2       1 <0>        -0.1499
      4 O3          0.8664    1.8750    1.6017 O.2       1 <0>        -0.2512
      5 N1          2.2820    1.5657   -0.2008 N.am      1 <0>        -0.2982
      6 N2          0.1062    2.3729   -0.5500 N.am      1 <0>        -0.1693
      7 C1          3.4023   -0.4350    0.6957 C.3       1 <0>        -0.0376
      8 C2          3.4146    1.0819    0.5392 C.3       1 <0>         0.0131
      9 C3          3.4529   -1.1653   -0.6482 C.3       1 <0>        -0.0545
     10 C4         -2.3230    1.3463   -0.0524 C.ar      1 <0>         0.1086
     11 C5          3.5004   -2.6735   -0.4591 C.3       1 <0>        -0.0652
     12 C6          1.0845    1.9279    0.3950 C.2       1 <0>         0.3189
     13 C7         -2.3802    0.6953    1.1679 C.ar      1 <0>        -0.0348
     14 C8         -2.9133    0.8139   -1.1855 C.ar      1 <0>        -0.0348
     15 C9         -3.6488   -1.0773    0.1261 C.ar      1 <0>        -0.0503
     16 C10        -3.0482   -0.5260    1.2578 C.ar      1 <0>        -0.0570
     17 C11        -3.5814   -0.4074   -1.0956 C.ar      1 <0>        -0.0570
     18 C12        -4.3635   -2.3828    0.2219 C.3       1 <0>        -0.0397
     19 H1          2.5016   -0.7424    1.2415 H         1 <0>         0.0280
     20 H2          4.2642   -0.7320    1.3053 H         1 <0>         0.0280
     21 H3          4.3150    1.4039    0.0054 H         1 <0>         0.0462
     22 H4          3.4250    1.5531    1.5281 H         1 <0>         0.0462
     23 H5          4.3374   -0.8462   -1.2116 H         1 <0>         0.0263
     24 H6          2.5739   -0.9139   -1.2522 H         1 <0>         0.0263
     25 H7          2.3619    1.6407   -1.2102 H         1 <0>         0.1503
     26 H8          2.6140   -3.0296    0.0753 H         1 <0>         0.0230
     27 H9          3.5364   -3.1763   -1.4307 H         1 <0>         0.0230
     28 H10         4.3874   -2.9701    0.1096 H         1 <0>         0.0230
     29 H11         0.3855    2.4231   -1.5379 H         1 <0>         0.1781
     30 H12        -1.9164    1.1060    2.0592 H         1 <0>         0.0637
     31 H13        -2.8657    1.3153   -2.1472 H         1 <0>         0.0637
     32 H14        -3.0948   -1.0379    2.2153 H         1 <0>         0.0621
     33 H15        -4.0455   -0.8269   -1.9844 H         1 <0>         0.0621
     34 H16        -4.3031   -2.9363   -0.7212 H         1 <0>         0.0278
     35 H17        -3.9214   -3.0196    0.9956 H         1 <0>         0.0278
     36 H18        -5.4179   -2.2168    0.4646 H         1 <0>         0.0278
@<TRIPOS>BOND
     1    1    2 2
     2    1    3 2
     3    1    6 1
     4    1   10 1
     5    4   12 2
     6    5    8 1
     7    5   12 am
     8    5   25 1
     9    6   12 am
    10    6   29 1
    11    7    8 1
    12    7    9 1
    13    7   19 1
    14    7   20 1
    15    8   21 1
    16    8   22 1
    17    9   11 1
    18    9   23 1
    19    9   24 1
    20   10   13 ar
    21   10   14 ar
    22   11   26 1
    23   11   27 1
    24   11   28 1
    25   13   16 ar
    26   13   30 1
    27   14   17 ar
    28   14   31 1
    29   15   16 ar
    30   15   17 ar
    31   15   18 1
    32   16   32 1
    33   17   33 1
    34   18   34 1
    35   18   35 1
    36   18   36 1
