@<TRIPOS>MOLECULE
DB01620
   38    39     0     0     0
SMALL
USER_CHARGES

@<TRIPOS>ATOM
      1 N1          2.4949    1.0309    0.2501 N.3       1 <0>        -0.3083
      2 N2         -0.6008   -1.9208   -1.1061 N.ar      1 <0>        -0.2593
      3 C1         -0.3501    0.1794    0.0730 C.3       1 <0>         0.0275
      4 C2          0.3983    0.9807   -1.0245 C.3       1 <0>        -0.0279
      5 C3          1.9036    0.6911   -1.0397 C.3       1 <0>        -0.0008
      6 C4         -1.8375    0.5112    0.1482 C.ar      1 <0>        -0.0384
      7 C5         -0.1239   -1.3251   -0.0067 C.ar      1 <0>         0.0487
      8 C6         -2.4794    0.4077    1.3632 C.ar      1 <0>        -0.0579
      9 C7         -2.4883    0.9028   -1.0015 C.ar      1 <0>        -0.0579
     10 C8          0.5339   -1.9370    1.0285 C.ar      1 <0>        -0.0398
     11 C9          2.3339    2.4584    0.5301 C.3       1 <0>        -0.0130
     12 C10         3.9115    0.6638    0.2796 C.3       1 <0>        -0.0130
     13 C11        -3.8391    0.7107    1.4319 C.ar      1 <0>        -0.0615
     14 C12        -3.8482    1.2057   -0.9329 C.ar      1 <0>        -0.0615
     15 C13         0.7241   -3.3105    0.9251 C.ar      1 <0>        -0.0586
     16 C14        -4.5236    1.1099    0.2838 C.ar      1 <0>        -0.0617
     17 C15        -0.3974   -3.2558   -1.1715 C.ar      1 <0>         0.0279
     18 C16         0.2527   -3.9900   -0.1927 C.ar      1 <0>        -0.0436
     19 H1          0.0600    0.5347    1.0297 H         1 <0>         0.0413
     20 H2          0.0423    0.6806   -2.0187 H         1 <0>         0.0287
     21 H3          0.1865    2.0535   -0.9475 H         1 <0>         0.0287
     22 H4          2.3701    1.2637   -1.8525 H         1 <0>         0.0427
     23 H5          2.0739   -0.3670   -1.2721 H         1 <0>         0.0427
     24 H6         -1.9552    0.0972    2.2619 H         1 <0>         0.0620
     25 H7         -2.0108    0.9715   -1.9709 H         1 <0>         0.0620
     26 H8          0.8977   -1.3993    1.8961 H         1 <0>         0.0636
     27 H9          1.2938    2.7253    0.7395 H         1 <0>         0.0391
     28 H10         2.7083    3.0891   -0.2846 H         1 <0>         0.0391
     29 H11         2.8836    2.7304    1.4395 H         1 <0>         0.0391
     30 H12         4.0338   -0.4113    0.1061 H         1 <0>         0.0391
     31 H13         4.3433    0.8713    1.2649 H         1 <0>         0.0391
     32 H14         4.4946    1.2044   -0.4748 H         1 <0>         0.0391
     33 H15        -4.3653    0.6354    2.3790 H         1 <0>         0.0618
     34 H16        -4.3830    1.5119   -1.8273 H         1 <0>         0.0618
     35 H17         1.2389   -3.8504    1.7141 H         1 <0>         0.0619
     36 H18        -5.5827    1.3447    0.3370 H         1 <0>         0.0618
     37 H19        -0.7841   -3.7383   -2.0630 H         1 <0>         0.0829
     38 H20         0.3897   -5.0604   -0.2944 H         1 <0>         0.0633
@<TRIPOS>BOND
     1    1    5 1
     2    1   11 1
     3    1   12 1
     4    2    7 ar
     5    2   17 ar
     6    3    4 1
     7    3    6 1
     8    3    7 1
     9    3   19 1
    10    4    5 1
    11    4   20 1
    12    4   21 1
    13    5   22 1
    14    5   23 1
    15    6    8 ar
    16    6    9 ar
    17    7   10 ar
    18    8   13 ar
    19    8   24 1
    20    9   14 ar
    21    9   25 1
    22   10   15 ar
    23   10   26 1
    24   11   27 1
    25   11   28 1
    26   11   29 1
    27   12   30 1
    28   12   31 1
    29   12   32 1
    30   13   16 ar
    31   13   33 1
    32   14   16 ar
    33   14   34 1
    34   15   18 ar
    35   15   35 1
    36   16   36 1
    37   17   18 ar
    38   17   37 1
    39   18   38 1
