@<TRIPOS>MOLECULE
DB01273
   29    32     0     0     0
SMALL
USER_CHARGES

@<TRIPOS>ATOM
      1 N1          2.2458   -0.0000   -1.6283 N.3       1 <0>        -0.3148
      2 N2         -3.2747    1.3914   -0.0165 N.ar      1 <0>        -0.2519
      3 N3         -3.2745   -1.3915   -0.0163 N.ar      1 <0>        -0.2519
      4 C1          1.6682    1.1870    0.5420 C.3       1 <0>        -0.0024
      5 C2          1.6682   -1.1869    0.5419 C.3       1 <0>        -0.0024
      6 C3          2.2513    0.0001    1.3283 C.3       1 <0>        -0.0370
      7 C4          0.2469    0.6995    0.4124 C.ar      1 <0>        -0.0374
      8 C5          0.2468   -0.6995    0.4122 C.ar      1 <0>        -0.0374
      9 C6          2.3726    1.2371   -0.8295 C.3       1 <0>         0.0028
     10 C7          2.3730   -1.2370   -0.8294 C.3       1 <0>         0.0028
     11 C8         -0.9274    1.4073    0.2637 C.ar      1 <0>        -0.0305
     12 C9         -0.9273   -1.4073    0.2635 C.ar      1 <0>        -0.0305
     13 C10        -2.1260    0.7098    0.1231 C.ar      1 <0>         0.0894
     14 C11        -2.1260   -0.7097    0.1230 C.ar      1 <0>         0.0894
     15 C12        -4.4111    0.6848   -0.1534 C.ar      1 <0>         0.0464
     16 C13        -4.4111   -0.6849   -0.1530 C.ar      1 <0>         0.0464
     17 H1          1.7511    2.1261    1.0959 H         1 <0>         0.0361
     18 H2          1.7512   -2.1260    1.0958 H         1 <0>         0.0361
     19 H3          3.3464    0.0001    1.3568 H         1 <0>         0.0278
     20 H4          1.8880    0.0001    2.3659 H         1 <0>         0.0278
     21 H5          1.9675    2.0652   -1.4232 H         1 <0>         0.0430
     22 H6          3.4387    1.4489   -0.6840 H         1 <0>         0.0430
     23 H7          3.4391   -1.4486   -0.6837 H         1 <0>         0.0430
     24 H8          1.9680   -2.0653   -1.4229 H         1 <0>         0.0430
     25 H9          1.3236   -0.0002   -2.0659 H         1 <0>         0.1220
     26 H10        -0.9130    2.4933    0.2541 H         1 <0>         0.0642
     27 H11        -0.9129   -2.4933    0.2539 H         1 <0>         0.0642
     28 H12        -5.3214    1.2604   -0.2635 H         1 <0>         0.0845
     29 H13        -5.3213   -1.2607   -0.2630 H         1 <0>         0.0845
@<TRIPOS>BOND
     1    1    9 1
     2    1   10 1
     3    1   25 1
     4    2   13 ar
     5    2   15 ar
     6    3   14 ar
     7    3   16 ar
     8    4    6 1
     9    4    7 1
    10    4    9 1
    11    4   17 1
    12    5    6 1
    13    5    8 1
    14    5   10 1
    15    5   18 1
    16    6   19 1
    17    6   20 1
    18    7    8 ar
    19    7   11 ar
    20    8   12 ar
    21    9   21 1
    22    9   22 1
    23   10   23 1
    24   10   24 1
    25   11   13 ar
    26   11   26 1
    27   12   14 ar
    28   12   27 1
    29   13   14 ar
    30   15   16 ar
    31   15   28 1
    32   16   29 1
