@<TRIPOS>MOLECULE
DB01603
   46    48     0     0     0
SMALL
USER_CHARGES

@<TRIPOS>ATOM
      1 S1          1.7181    1.0805   -0.4523 S.3       1 <0>        -0.1273
      2 O1          1.4192   -3.1310    0.8068 O.2       1 <0>        -0.2734
      3 O2          5.6244   -0.9551    1.3091 O.3       1 <0>        -0.4793
      4 O3          4.9749   -2.3430   -0.3784 O.2       1 <0>        -0.2489
      5 O4         -2.0734   -0.7133   -1.9672 O.2       1 <0>        -0.2699
      6 O5         -1.9773    2.2517   -0.4216 O.3       1 <0>        -0.4942
      7 O6         -3.7176   -2.0932    0.6380 O.3       1 <0>        -0.4942
      8 N1          2.4967   -1.3925   -0.3708 N.am      1 <0>        -0.2708
      9 N2         -0.6318   -0.8737   -0.1603 N.am      1 <0>        -0.2975
     10 C1          1.6718   -0.5636   -1.2547 C.3       1 <0>         0.1005
     11 C2          3.4344    0.7582    0.1962 C.3       1 <0>         0.0417
     12 C3          3.4164   -0.7459    0.5432 C.3       1 <0>         0.1379
     13 C4          0.4888   -1.4740   -0.8977 C.3       1 <0>         0.1279
     14 C5          1.4885   -2.2373   -0.0060 C.2       1 <0>         0.2402
     15 C6          4.4344    1.1469   -0.9011 C.3       1 <0>        -0.0484
     16 C7          3.6642    1.6154    1.4422 C.3       1 <0>        -0.0484
     17 C8          4.7311   -1.4473    0.4162 C.2       1 <0>         0.3269
     18 C9         -1.8198   -0.5479   -0.7768 C.2       1 <0>         0.2518
     19 C10        -2.8417    0.0754    0.1031 C.ar      1 <0>         0.1197
     20 C11        -2.8642    1.4506    0.2335 C.ar      1 <0>         0.1357
     21 C12        -3.7407   -0.7366    0.7672 C.ar      1 <0>         0.1357
     22 C13        -3.8229    2.0365    1.0604 C.ar      1 <0>        -0.0190
     23 C14        -4.6993   -0.1507    1.5940 C.ar      1 <0>        -0.0190
     24 C15        -4.7404    1.2358    1.7405 C.ar      1 <0>        -0.0548
     25 C16        -2.3555    2.7124   -1.7170 C.3       1 <0>         0.0788
     26 C17        -4.5062   -2.6577   -0.4076 C.3       1 <0>         0.0788
     27 H1          2.0028   -0.5940   -2.2967 H         1 <0>         0.0640
     28 H2          3.0396   -0.9227    1.5598 H         1 <0>         0.0631
     29 H3          0.1462   -2.0970   -1.7335 H         1 <0>         0.0622
     30 H4          4.3264    0.5279   -1.7989 H         1 <0>         0.0244
     31 H5          4.3130    2.1950   -1.2005 H         1 <0>         0.0244
     32 H6          5.4676    1.0383   -0.5530 H         1 <0>         0.0244
     33 H7          3.5834    2.6849    1.2146 H         1 <0>         0.0244
     34 H8          2.9402    1.3870    2.2332 H         1 <0>         0.0244
     35 H9          4.6640    1.4497    1.8576 H         1 <0>         0.0244
     36 H10        -0.5353   -0.6771    0.8335 H         1 <0>         0.1499
     37 H11         6.4948   -1.4020    1.2410 H         1 <0>         0.2951
     38 H12        -3.8605    3.1158    1.1802 H         1 <0>         0.0654
     39 H13        -5.4169   -0.7679    2.1278 H         1 <0>         0.0654
     40 H14        -5.4866    1.6920    2.3844 H         1 <0>         0.0620
     41 H15        -1.4991    3.2285   -2.1595 H         1 <0>         0.0660
     42 H16        -3.1861    3.4207   -1.6361 H         1 <0>         0.0660
     43 H17        -2.6380    1.8818   -2.3703 H         1 <0>         0.0660
     44 H18        -4.3063   -3.7320   -0.4443 H         1 <0>         0.0660
     45 H19        -4.2510   -2.2220   -1.3779 H         1 <0>         0.0660
     46 H20        -5.5704   -2.5077   -0.2004 H         1 <0>         0.0660
@<TRIPOS>BOND
     1    1   10 1
     2    1   11 1
     3    2   14 2
     4    3   17 1
     5    3   37 1
     6    4   17 2
     7    5   18 2
     8    6   20 1
     9    6   25 1
    10    7   21 1
    11    7   26 1
    12    8   10 1
    13    8   12 1
    14    8   14 am
    15    9   13 1
    16    9   18 am
    17    9   36 1
    18   10   13 1
    19   10   27 1
    20   11   12 1
    21   11   15 1
    22   11   16 1
    23   12   17 1
    24   12   28 1
    25   13   14 1
    26   13   29 1
    27   15   30 1
    28   15   31 1
    29   15   32 1
    30   16   33 1
    31   16   34 1
    32   16   35 1
    33   18   19 1
    34   19   20 ar
    35   19   21 ar
    36   20   22 ar
    37   21   23 ar
    38   22   24 ar
    39   22   38 1
    40   23   24 ar
    41   23   39 1
    42   24   40 1
    43   25   41 1
    44   25   42 1
    45   25   43 1
    46   26   44 1
    47   26   45 1
    48   26   46 1
