@<TRIPOS>MOLECULE
DB01186
   48    51     0     0     0
SMALL
USER_CHARGES

@<TRIPOS>ATOM
      1 S1          2.5867    3.6781   -0.6545 S.3       1 <0>        -0.1638
      2 N1          0.8832   -1.2580   -0.3145 N.3       1 <0>        -0.2982
      3 N2         -5.0963   -0.8660    0.2818 N.pl3     1 <0>        -0.3604
      4 C1         -0.7644    0.6273   -0.5674 C.3       1 <0>         0.0010
      5 C2         -0.4824   -0.8100    0.0551 C.3       1 <0>         0.0213
      6 C3          0.3079    1.6227   -0.1042 C.3       1 <0>        -0.0400
      7 C4          1.7086    1.0907   -0.4156 C.3       1 <0>        -0.0186
      8 C5          1.9000   -0.3103    0.1755 C.3       1 <0>         0.0028
      9 C6         -1.5875   -1.8610   -0.3475 C.3       1 <0>        -0.0095
     10 C7         -2.1807    1.0875   -0.2638 C.2       1 <0>        -0.0334
     11 C8         -2.9509   -1.3086   -0.1075 C.2       1 <0>        -0.0206
     12 C9         -3.1439    0.0868   -0.0842 C.2       1 <0>         0.0064
     13 C10         1.1999   -2.5973    0.1905 C.3       1 <0>        -0.0010
     14 C11         2.7763    2.0495    0.1110 C.3       1 <0>        -0.0026
     15 C12        -4.4773    0.3589    0.1572 C.2       1 <0>         0.0470
     16 C13        -2.6495    2.4070   -0.2173 C.2       1 <0>        -0.0576
     17 C14        -4.1790   -1.8841    0.1197 C.2       1 <0>         0.0060
     18 C15         2.5626   -3.0504   -0.3276 C.3       1 <0>        -0.0430
     19 C16        -4.9493    1.6686    0.2284 C.2       1 <0>        -0.0378
     20 C17        -4.0031    2.6867    0.0315 C.2       1 <0>        -0.0595
     21 C18         2.9057   -4.4477    0.1651 C.3       1 <0>        -0.0641
     22 C19         3.9587    4.5222    0.1670 C.3       1 <0>        -0.0181
     23 H1         -0.6990    0.5383   -1.6621 H         1 <0>         0.0364
     24 H2         -0.5338   -0.7086    1.1514 H         1 <0>         0.0472
     25 H3          0.1334    2.5748   -0.6135 H         1 <0>         0.0275
     26 H4          0.2030    1.8100    0.9731 H         1 <0>         0.0275
     27 H5          1.8154    1.0101   -1.5076 H         1 <0>         0.0321
     28 H6          2.9080   -0.5935   -0.1329 H         1 <0>         0.0430
     29 H7          1.8921   -0.2648    1.2731 H         1 <0>         0.0430
     30 H8         -1.4870   -2.7755    0.2471 H         1 <0>         0.0329
     31 H9         -1.4865   -2.1247   -1.4074 H         1 <0>         0.0329
     32 H10         1.1739   -2.6266    1.2872 H         1 <0>         0.0426
     33 H11         0.4775   -3.3324   -0.1768 H         1 <0>         0.0426
     34 H12         3.7745    1.6656   -0.1252 H         1 <0>         0.0379
     35 H13         2.6979    2.1527    1.1989 H         1 <0>         0.0379
     36 H14        -1.9743    3.2427   -0.3773 H         1 <0>         0.0621
     37 H15        -4.4923   -2.9166    0.1850 H         1 <0>         0.0810
     38 H16         2.5791   -3.0383   -1.4241 H         1 <0>         0.0275
     39 H17         3.3850   -2.4242    0.0249 H         1 <0>         0.0275
     40 H18        -6.0813   -1.0016    0.4626 H         1 <0>         0.1653
     41 H19        -5.9926    1.8945    0.4165 H         1 <0>         0.0638
     42 H20        -4.3301    3.7238    0.0669 H         1 <0>         0.0618
     43 H21         2.9402   -4.4819    1.2590 H         1 <0>         0.0230
     44 H22         2.1657   -5.1777   -0.1782 H         1 <0>         0.0230
     45 H23         3.8851   -4.7555   -0.2152 H         1 <0>         0.0230
     46 H24         3.8096    4.5269    1.2500 H         1 <0>         0.0340
     47 H25         4.0050    5.5574   -0.1815 H         1 <0>         0.0340
     48 H26         4.9060    4.0324   -0.0726 H         1 <0>         0.0340
@<TRIPOS>BOND
     1    1   14 1
     2    1   22 1
     3    2    5 1
     4    2    8 1
     5    2   13 1
     6    3   15 1
     7    3   17 2
     8    3   40 1
     9    4    5 1
    10    4    6 1
    11    4   10 1
    12    4   23 1
    13    5    9 1
    14    5   24 1
    15    6    7 1
    16    6   25 1
    17    6   26 1
    18    7    8 1
    19    7   14 1
    20    7   27 1
    21    8   28 1
    22    8   29 1
    23    9   11 1
    24    9   30 1
    25    9   31 1
    26   10   12 1
    27   10   16 2
    28   11   12 2
    29   11   17 1
    30   12   15 2
    31   13   18 1
    32   13   32 1
    33   13   33 1
    34   14   34 1
    35   14   35 1
    36   15   19 1
    37   16   20 1
    38   16   36 1
    39   17   37 1
    40   18   21 1
    41   18   38 1
    42   18   39 1
    43   19   20 2
    44   19   41 1
    45   20   42 1
    46   21   43 1
    47   21   44 1
    48   21   45 1
    49   22   46 1
    50   22   47 1
    51   22   48 1
