@<TRIPOS>MOLECULE
DB01003
   50    53     0     0     0
SMALL
USER_CHARGES

@<TRIPOS>ATOM
      1 O1          2.6726    1.1586   -0.5033 O.3       1 <0>        -0.4885
      2 O2          2.0801   -2.0599    0.5054 O.3       1 <0>        -0.4885
      3 O3          5.0051    0.1238    0.6123 O.3       1 <0>        -0.3850
      4 O4         -1.6873    3.2802   -0.4761 O.3       1 <0>        -0.4479
      5 O5         -2.7412   -2.5728    0.4653 O.3       1 <0>        -0.4479
      6 O6          1.5360    2.0661    1.7082 O.2       1 <0>        -0.2869
      7 O7          0.7119   -2.5564   -1.7052 O.2       1 <0>        -0.2869
      8 O8         -3.6707    4.4222    0.6225 O.3       1 <0>        -0.4750
      9 O9         -4.9904   -2.9868   -0.6370 O.3       1 <0>        -0.4750
     10 O10        -2.8016    4.3428    2.7364 O.2       1 <0>        -0.2417
     11 O11        -4.1372   -3.2359   -2.7443 O.2       1 <0>        -0.2417
     12 C1          4.0425   -0.7451    0.0109 C.3       1 <0>         0.1229
     13 C2          3.3274    0.0332   -1.0858 C.3       1 <0>         0.1186
     14 C3          3.0692   -1.2159    1.0856 C.3       1 <0>         0.1186
     15 C4          1.5443    1.6066   -1.1208 C.ar      1 <0>         0.1350
     16 C5          0.8576   -2.0895    1.1218 C.ar      1 <0>         0.1350
     17 C6          0.5018    2.2248   -0.4270 C.ar      1 <0>         0.1055
     18 C7         -0.3236   -2.3254    0.4228 C.ar      1 <0>         0.1055
     19 C8         -0.6339    2.6665   -1.1080 C.ar      1 <0>         0.1431
     20 C9         -1.5446   -2.3454    1.0992 C.ar      1 <0>         0.1431
     21 C10         1.4432    1.4331   -2.5018 C.ar      1 <0>        -0.0190
     22 C11         0.8225   -1.8734    2.4965 C.ar      1 <0>        -0.0190
     23 C12         0.5810    2.4214    1.0313 C.2       1 <0>         0.1968
     24 C13        -0.3098   -2.5568   -1.0325 C.2       1 <0>         0.1968
     25 C14        -0.7320    2.4913   -2.4883 C.ar      1 <0>        -0.0184
     26 C15        -1.5828   -2.1289    2.4766 C.ar      1 <0>        -0.0184
     27 C16         0.3081    1.8741   -3.1840 C.ar      1 <0>        -0.0548
     28 C17        -0.3978   -1.8929    3.1740 C.ar      1 <0>        -0.0548
     29 C18        -0.5764    3.0863    1.6634 C.2       1 <0>         0.0354
     30 C19        -1.6218   -2.7967   -1.6667 C.2       1 <0>         0.0354
     31 C20        -1.5988    3.4577    0.8869 C.2       1 <0>         0.2154
     32 C21        -2.7128   -2.7880   -0.8948 C.2       1 <0>         0.2154
     33 C22        -2.7317    4.1149    1.5419 C.2       1 <0>         0.3726
     34 C23        -3.9990   -3.0295   -1.5518 C.2       1 <0>         0.3726
     35 H1          4.5663   -1.6022   -0.4270 H         1 <0>         0.0661
     36 H2          2.6287   -0.6421   -1.5931 H         1 <0>         0.0724
     37 H3          4.0633    0.4045   -1.8089 H         1 <0>         0.0724
     38 H4          3.6275   -1.7808    1.8429 H         1 <0>         0.0724
     39 H5          2.6400   -0.3365    1.5811 H         1 <0>         0.0724
     40 H6          2.2357    0.9925   -3.0993 H         1 <0>         0.0654
     41 H7          1.7147   -1.7218    3.0962 H         1 <0>         0.0654
     42 H8         -1.6112    2.8329   -3.0276 H         1 <0>         0.0654
     43 H9         -2.5279   -2.1440    3.0123 H         1 <0>         0.0654
     44 H10         0.2371    1.7438   -4.2600 H         1 <0>         0.0620
     45 H11        -0.4245   -1.7322    4.2480 H         1 <0>         0.0620
     46 H12         5.6335    0.3889   -0.0809 H         1 <0>         0.2101
     47 H13        -0.5391    3.2411    2.7353 H         1 <0>         0.0695
     48 H14        -1.6349   -2.9694   -2.7365 H         1 <0>         0.0695
     49 H15        -4.4485    4.8654    1.0238 H         1 <0>         0.2955
     50 H16        -5.8708   -3.1445   -1.0399 H         1 <0>         0.2955
@<TRIPOS>BOND
     1    1   13 1
     2    1   15 1
     3    2   14 1
     4    2   16 1
     5    3   12 1
     6    3   46 1
     7    4   19 1
     8    4   31 1
     9    5   20 1
    10    5   32 1
    11    6   23 2
    12    7   24 2
    13    8   33 1
    14    8   49 1
    15    9   34 1
    16    9   50 1
    17   10   33 2
    18   11   34 2
    19   12   13 1
    20   12   14 1
    21   12   35 1
    22   13   36 1
    23   13   37 1
    24   14   38 1
    25   14   39 1
    26   15   17 ar
    27   15   21 ar
    28   16   18 ar
    29   16   22 ar
    30   17   19 ar
    31   17   23 1
    32   18   20 ar
    33   18   24 1
    34   19   25 ar
    35   20   26 ar
    36   21   27 ar
    37   21   40 1
    38   22   28 ar
    39   22   41 1
    40   23   29 1
    41   24   30 1
    42   25   27 ar
    43   25   42 1
    44   26   28 ar
    45   26   43 1
    46   27   44 1
    47   28   45 1
    48   29   31 2
    49   29   47 1
    50   30   32 2
    51   30   48 1
    52   31   33 1
    53   32   34 1
