@<TRIPOS>MOLECULE
DB01187
   51    51     0     0     0
SMALL
USER_CHARGES

@<TRIPOS>ATOM
      1 I1          5.4319   -0.9347   -3.1451 I         1 <0>        -0.0435
      2 O1         -7.3499   -0.4953   -0.1548 O.3       1 <0>        -0.4649
      3 O2         -6.4086    1.0147    1.3115 O.2       1 <0>        -0.2509
      4 C1          2.5960    0.6228   -0.4251 C.3       1 <0>        -0.0525
      5 C2          3.7897    1.3870    0.1620 C.3       1 <0>        -0.0464
      6 C3          1.2767    1.1406    0.1548 C.3       1 <0>        -0.0530
      7 C4          5.1689    0.9910   -0.4122 C.3       1 <0>        -0.0177
      8 C5          0.0374    0.4377   -0.4092 C.3       1 <0>        -0.0531
      9 C6         -1.3105    0.8928    0.1598 C.3       1 <0>        -0.0530
     10 C7         -2.5065    0.1195   -0.3995 C.3       1 <0>        -0.0526
     11 C8          5.5157   -0.4610   -0.1148 C.ar      1 <0>        -0.0314
     12 C9         -3.8140    0.5653    0.2639 C.3       1 <0>        -0.0430
     13 C10         6.2410    2.0139   -0.0174 C.3       1 <0>        -0.0584
     14 C11        -5.0293   -0.1695   -0.3025 C.3       1 <0>         0.0449
     15 C12         5.6676   -1.4139   -1.1222 C.ar      1 <0>         0.0168
     16 C13         5.6803   -0.8261    1.2213 C.ar      1 <0>        -0.0573
     17 C14         5.9844   -2.7321   -0.7930 C.ar      1 <0>        -0.0483
     18 C15         5.9969   -2.1442    1.5502 C.ar      1 <0>        -0.0614
     19 C16        -6.3184    0.2138    0.3910 C.2       1 <0>         0.3071
     20 C17         6.1489   -3.0971    0.5432 C.ar      1 <0>        -0.0608
     21 C18        -8.6356   -0.2544    0.4266 C.3       1 <0>         0.0896
     22 C19        -9.6651   -1.1084   -0.2821 C.3       1 <0>        -0.0306
     23 H1          2.6876   -0.4478   -0.2113 H         1 <0>         0.0265
     24 H2          2.5844    0.7400   -1.5150 H         1 <0>         0.0265
     25 H3          3.7863    1.2772    1.2538 H         1 <0>         0.0271
     26 H4          3.6313    2.4570   -0.0300 H         1 <0>         0.0271
     27 H5          1.1898    2.2166   -0.0403 H         1 <0>         0.0265
     28 H6          1.2889    1.0174    1.2449 H         1 <0>         0.0265
     29 H7          5.0626    1.1528   -1.4846 H         1 <0>         0.0346
     30 H8          0.0216    0.5734   -1.4980 H         1 <0>         0.0265
     31 H9          0.1422   -0.6408   -0.2351 H         1 <0>         0.0265
     32 H10        -1.4409    1.9628   -0.0433 H         1 <0>         0.0265
     33 H11        -1.2863    0.7797    1.2509 H         1 <0>         0.0265
     34 H12        -2.3607   -0.9547   -0.2337 H         1 <0>         0.0265
     35 H13        -2.5683    0.2752   -1.4831 H         1 <0>         0.0265
     36 H14        -3.7514    0.3915    1.3456 H         1 <0>         0.0270
     37 H15        -3.9471    1.6461    0.1285 H         1 <0>         0.0270
     38 H16         7.2055    1.7578   -0.4694 H         1 <0>         0.0236
     39 H17         5.9673    3.0196   -0.3535 H         1 <0>         0.0236
     40 H18         6.3806    2.0504    1.0682 H         1 <0>         0.0236
     41 H19        -5.1333    0.0605   -1.3688 H         1 <0>         0.0377
     42 H20        -4.8912   -1.2501   -0.1837 H         1 <0>         0.0377
     43 H21         5.5711   -0.1009    2.0229 H         1 <0>         0.0621
     44 H22         6.1077   -3.4930   -1.5596 H         1 <0>         0.0628
     45 H23         6.1259   -2.4285    2.5905 H         1 <0>         0.0618
     46 H24         6.3955   -4.1233    0.7997 H         1 <0>         0.0618
     47 H25        -8.8940    0.8046    0.3160 H         1 <0>         0.0694
     48 H26        -8.6094   -0.5137    1.4911 H         1 <0>         0.0694
     49 H27        -9.6904   -0.8735   -1.3514 H         1 <0>         0.0262
     50 H28        -9.4107   -2.1699   -0.1959 H         1 <0>         0.0262
     51 H29       -10.6620   -0.9488    0.1382 H         1 <0>         0.0262
@<TRIPOS>BOND
     1    1   15 1
     2    2   19 1
     3    2   21 1
     4    3   19 2
     5    4    5 1
     6    4    6 1
     7    4   23 1
     8    4   24 1
     9    5    7 1
    10    5   25 1
    11    5   26 1
    12    6    8 1
    13    6   27 1
    14    6   28 1
    15    7   11 1
    16    7   13 1
    17    7   29 1
    18    8    9 1
    19    8   30 1
    20    8   31 1
    21    9   10 1
    22    9   32 1
    23    9   33 1
    24   10   12 1
    25   10   34 1
    26   10   35 1
    27   11   15 ar
    28   11   16 ar
    29   12   14 1
    30   12   36 1
    31   12   37 1
    32   13   38 1
    33   13   39 1
    34   13   40 1
    35   14   19 1
    36   14   41 1
    37   14   42 1
    38   15   17 ar
    39   16   18 ar
    40   16   43 1
    41   17   20 ar
    42   17   44 1
    43   18   20 ar
    44   18   45 1
    45   20   46 1
    46   21   22 1
    47   21   47 1
    48   21   48 1
    49   22   49 1
    50   22   50 1
    51   22   51 1
