@<TRIPOS>MOLECULE
DB01029
   60    64     0     0     0
SMALL
USER_CHARGES

@<TRIPOS>ATOM
      1 O1          1.8665   -2.3464    2.0893 O.2       1 <0>        -0.2422
      2 N1          3.0351   -0.6228   -0.7863 N.2       1 <0>        -0.0687
      3 N2          1.7330   -0.2741    1.0176 N.am      1 <0>        -0.1529
      4 N3         -3.5867   -0.7153   -2.5418 N.2       1 <0>        -0.1331
      5 N4         -3.9148    1.5032   -2.2288 N.2       1 <0>        -0.1080
      6 N5         -2.8944    0.0635   -3.3849 N.pl3     1 <0>        -0.1761
      7 N6         -3.0585    1.3853   -3.2362 N.2       1 <0>        -0.0485
      8 C1          3.0204   -1.8820   -0.0061 C.3       1 <0>         0.2491
      9 C2          2.4782   -3.0337   -0.8587 C.3       1 <0>         0.0059
     10 C3          4.4457   -2.2642    0.4060 C.3       1 <0>         0.0059
     11 C4          3.6915   -3.9087   -1.1519 C.3       1 <0>        -0.0481
     12 C5          4.5534   -3.7505    0.0885 C.3       1 <0>        -0.0481
     13 C6          2.1356   -1.5708    1.1851 C.2       1 <0>         0.3556
     14 C7          2.2836    0.1960   -0.1180 C.2       1 <0>         0.2916
     15 C8          2.0284    1.5970   -0.5730 C.3       1 <0>         0.0509
     16 C9          0.8632    0.4444    1.9321 C.3       1 <0>         0.1137
     17 C10         3.1119    2.5410   -0.0639 C.3       1 <0>        -0.0424
     18 C11        -0.5856    0.2847    1.5719 C.ar      1 <0>        -0.0077
     19 C12         2.9204    3.9765   -0.5593 C.3       1 <0>        -0.0554
     20 C13        -1.0775   -0.9730    1.2429 C.ar      1 <0>        -0.0544
     21 C14        -1.4202    1.3958    1.5711 C.ar      1 <0>        -0.0544
     22 C15         4.0508    4.8807   -0.0924 C.3       1 <0>        -0.0653
     23 C16        -2.4235   -1.1214    0.9081 C.ar      1 <0>        -0.0536
     24 C17        -2.7663    1.2475    1.2365 C.ar      1 <0>        -0.0536
     25 C18        -3.2679   -0.0113    0.9050 C.ar      1 <0>        -0.0172
     26 C19        -4.6642   -0.1654    0.5586 C.ar      1 <0>        -0.0071
     27 C20        -5.1133   -0.0485   -0.7593 C.ar      1 <0>         0.0304
     28 C21        -5.5779   -0.4387    1.5793 C.ar      1 <0>        -0.0534
     29 C22        -6.4677   -0.2039   -1.0541 C.ar      1 <0>        -0.0503
     30 C23        -6.9323   -0.5941    1.2844 C.ar      1 <0>        -0.0611
     31 C24        -4.2063    0.2329   -1.8418 C.2       1 <0>         0.2049
     32 C25        -7.3773   -0.4767   -0.0322 C.ar      1 <0>        -0.0611
     33 H1          2.0045   -2.6979   -1.7875 H         1 <0>         0.0316
     34 H2          1.7341   -3.6200   -0.3058 H         1 <0>         0.0316
     35 H3          5.1866   -1.7121   -0.1856 H         1 <0>         0.0316
     36 H4          4.6597   -2.0723    1.4627 H         1 <0>         0.0316
     37 H5          3.4157   -4.9504   -1.3387 H         1 <0>         0.0267
     38 H6          4.2236   -3.5316   -2.0334 H         1 <0>         0.0267
     39 H7          5.5875   -4.0647   -0.0791 H         1 <0>         0.0267
     40 H8          4.1434   -4.3443    0.9140 H         1 <0>         0.0267
     41 H9          1.0401    1.9441   -0.2614 H         1 <0>         0.0387
     42 H10         2.0316    1.5985   -1.6701 H         1 <0>         0.0387
     43 H11         1.1514    1.4997    1.9531 H         1 <0>         0.0783
     44 H12         1.0110    0.0432    2.9422 H         1 <0>         0.0783
     45 H13         4.0942    2.1732   -0.3877 H         1 <0>         0.0271
     46 H14         3.1298    2.5320    1.0328 H         1 <0>         0.0271
     47 H15         2.8800    3.9895   -1.6546 H         1 <0>         0.0263
     48 H16         1.9649    4.3700   -0.1936 H         1 <0>         0.0263
     49 H17        -0.4627   -1.8640    1.2482 H         1 <0>         0.0622
     50 H18        -1.0419    2.3814    1.8276 H         1 <0>         0.0622
     51 H19         3.8934    5.9015   -0.4545 H         1 <0>         0.0230
     52 H20         4.1017    4.9118    1.0006 H         1 <0>         0.0230
     53 H21         5.0159    4.5305   -0.4721 H         1 <0>         0.0230
     54 H22        -2.7995   -2.1101    0.6553 H         1 <0>         0.0624
     55 H23        -3.4108    2.1235    1.2383 H         1 <0>         0.0624
     56 H24        -5.2510   -0.5341    2.6124 H         1 <0>         0.0624
     57 H25        -6.8330   -0.1154   -2.0747 H         1 <0>         0.0625
     58 H26        -7.6405   -0.8065    2.0799 H         1 <0>         0.0618
     59 H27        -8.4319   -0.5977   -0.2618 H         1 <0>         0.0618
     60 H28        -2.2812   -0.3248   -4.0937 H         1 <0>         0.2143
@<TRIPOS>BOND
     1    1   13 2
     2    2    8 1
     3    2   14 2
     4    3   13 am
     5    3   14 1
     6    3   16 1
     7    4    6 1
     8    4   31 2
     9    5    7 2
    10    5   31 1
    11    6    7 1
    12    6   60 1
    13    8    9 1
    14    8   10 1
    15    8   13 1
    16    9   11 1
    17    9   33 1
    18    9   34 1
    19   10   12 1
    20   10   35 1
    21   10   36 1
    22   11   12 1
    23   11   37 1
    24   11   38 1
    25   12   39 1
    26   12   40 1
    27   14   15 1
    28   15   17 1
    29   15   41 1
    30   15   42 1
    31   16   18 1
    32   16   43 1
    33   16   44 1
    34   17   19 1
    35   17   45 1
    36   17   46 1
    37   18   20 ar
    38   18   21 ar
    39   19   22 1
    40   19   47 1
    41   19   48 1
    42   20   23 ar
    43   20   49 1
    44   21   24 ar
    45   21   50 1
    46   22   51 1
    47   22   52 1
    48   22   53 1
    49   23   25 ar
    50   23   54 1
    51   24   25 ar
    52   24   55 1
    53   25   26 1
    54   26   27 ar
    55   26   28 ar
    56   27   29 ar
    57   27   31 1
    58   28   30 ar
    59   28   56 1
    60   29   32 ar
    61   29   57 1
    62   30   32 ar
    63   30   58 1
    64   32   59 1
