@<TRIPOS>MOLECULE
DB01638
   26    25     0     0     0
SMALL
USER_CHARGES

@<TRIPOS>ATOM
      1 O1         -1.4024   -1.6886   -1.2851 O.3       1 <0>        -0.3865
      2 O2          1.3420   -1.5499   -1.3299 O.3       1 <0>        -0.3865
      3 O3         -2.8739   -0.7258    0.8551 O.3       1 <0>        -0.3869
      4 O4          1.7452   -0.9827    1.4260 O.3       1 <0>        -0.3869
      5 O5         -2.8691    1.9824    0.3667 O.3       1 <0>        -0.3924
      6 O6          2.6254    1.6200   -0.9615 O.3       1 <0>        -0.3924
      7 C1         -0.7264   -1.1108   -0.1687 C.3       1 <0>         0.1114
      8 C2          0.6121   -0.5277   -0.6523 C.3       1 <0>         0.1114
      9 C3         -1.6428   -0.0757    0.5141 C.3       1 <0>         0.1065
     10 C4          1.4752    0.0611    0.4818 C.3       1 <0>         0.1065
     11 C5         -1.9984    1.1222   -0.3638 C.3       1 <0>         0.0727
     12 C6          2.8261    0.6070    0.0214 C.3       1 <0>         0.0727
     13 H1         -0.5504   -1.9477    0.5169 H         1 <0>         0.0647
     14 H2          0.4254    0.2390   -1.4114 H         1 <0>         0.0647
     15 H3         -1.2088    0.2748    1.4566 H         1 <0>         0.0643
     16 H4          0.9229    0.8574    0.9916 H         1 <0>         0.0643
     17 H5         -2.5283    0.8225   -1.2730 H         1 <0>         0.0584
     18 H6         -1.1162    1.7045   -0.6400 H         1 <0>         0.0584
     19 H7          3.4524   -0.1804   -0.4106 H         1 <0>         0.0584
     20 H8          3.3855    1.0337    0.8610 H         1 <0>         0.0584
     21 H9         -1.4608   -1.0181   -1.9862 H         1 <0>         0.2100
     22 H10         1.5541   -2.2406   -0.6789 H         1 <0>         0.2100
     23 H11        -2.6581   -1.4676    1.4457 H         1 <0>         0.2100
     24 H12         2.2392   -0.5877    2.1648 H         1 <0>         0.2100
     25 H13        -3.6523    1.4618    0.6144 H         1 <0>         0.2095
     26 H14         2.0826    2.3168   -0.5548 H         1 <0>         0.2095
@<TRIPOS>BOND
     1    1    7 1
     2    1   21 1
     3    2    8 1
     4    2   22 1
     5    3    9 1
     6    3   23 1
     7    4   10 1
     8    4   24 1
     9    5   11 1
    10    5   25 1
    11    6   12 1
    12    6   26 1
    13    7    8 1
    14    7    9 1
    15    7   13 1
    16    8   10 1
    17    8   14 1
    18    9   11 1
    19    9   15 1
    20   10   12 1
    21   10   16 1
    22   11   17 1
    23   11   18 1
    24   12   19 1
    25   12   20 1
