@<TRIPOS>MOLECULE
DB01081
   66    69     0     0     0
SMALL
USER_CHARGES

@<TRIPOS>ATOM
      1 O1          4.8330   -1.5484   -0.4989 O.3       1 <0>        -0.4643
      2 O2          4.5675   -2.1169    1.7242 O.2       1 <0>        -0.2498
      3 N1          0.1687   -0.3593    1.1699 N.3       1 <0>        -0.3022
      4 N2         -4.2559    0.4644    3.2544 N.1       1 <0>        -0.1953
      5 C1          3.1126   -0.4776    0.6947 C.3       1 <0>         0.0949
      6 C2          2.4519   -0.4575    2.0991 C.3       1 <0>        -0.0203
      7 C3          2.0538   -1.0575   -0.2813 C.3       1 <0>        -0.0203
      8 C4          1.1060    0.2731    2.1044 C.3       1 <0>         0.0002
      9 C5          0.6958   -0.3478   -0.1991 C.3       1 <0>         0.0002
     10 C6         -1.1359    0.2994    1.2245 C.3       1 <0>         0.0009
     11 C7          3.7111    0.8832    0.3089 C.ar      1 <0>        -0.0305
     12 C8          4.2469   -1.4798    0.7301 C.2       1 <0>         0.3178
     13 C9         -2.2281   -0.6542    0.7073 C.3       1 <0>        -0.0135
     14 C10        -3.6893   -0.0681    0.7146 C.3       1 <0>         0.1082
     15 C11         3.2751    1.5353   -0.8447 C.ar      1 <0>        -0.0575
     16 C12         4.6911    1.4668    1.1119 C.ar      1 <0>        -0.0575
     17 C13        -3.7226    1.1747   -0.2081 C.ar      1 <0>        -0.0232
     18 C14        -4.7576   -1.0887    0.2393 C.ar      1 <0>        -0.0232
     19 C15         3.8192    2.7710   -1.1949 C.ar      1 <0>        -0.0615
     20 C16         5.2349    2.7026    0.7616 C.ar      1 <0>        -0.0615
     21 C17        -4.0086    0.2404    2.1423 C.1       1 <0>         0.0787
     22 C18         4.7990    3.3546   -0.3918 C.ar      1 <0>        -0.0617
     23 C19         5.9280   -2.4635   -0.6078 C.3       1 <0>         0.0897
     24 C20        -4.0304    2.4281    0.3211 C.ar      1 <0>        -0.0568
     25 C21        -4.3660   -2.3486   -0.2137 C.ar      1 <0>        -0.0568
     26 C22        -3.4445    1.0412   -1.5685 C.ar      1 <0>        -0.0568
     27 C23        -6.1095   -0.7458    0.2645 C.ar      1 <0>        -0.0568
     28 C24         6.4656   -2.4232   -2.0224 C.3       1 <0>        -0.0306
     29 C25        -4.0602    3.5480   -0.5100 C.ar      1 <0>        -0.0614
     30 C26        -5.3264   -3.2655   -0.6412 C.ar      1 <0>        -0.0614
     31 C27        -3.4742    2.1611   -2.3995 C.ar      1 <0>        -0.0614
     32 C28        -7.0697   -1.6627   -0.1629 C.ar      1 <0>        -0.0614
     33 C29        -3.7821    3.4145   -1.8701 C.ar      1 <0>        -0.0617
     34 C30        -6.6782   -2.9224   -0.6158 C.ar      1 <0>        -0.0617
     35 H1          3.1084   -0.0005    2.8494 H         1 <0>         0.0291
     36 H2          2.2750   -1.4851    2.4493 H         1 <0>         0.0291
     37 H3          1.8915   -2.1202   -0.0442 H         1 <0>         0.0291
     38 H4          2.4081   -1.0548   -1.3201 H         1 <0>         0.0291
     39 H5          0.7042    0.2206    3.1240 H         1 <0>         0.0427
     40 H6          1.2475    1.3351    1.8666 H         1 <0>         0.0427
     41 H7          0.0265   -0.8884   -0.8764 H         1 <0>         0.0427
     42 H8          0.7468    0.6780   -0.5747 H         1 <0>         0.0427
     43 H9         -1.1244    1.2472    0.6737 H         1 <0>         0.0427
     44 H10        -1.3732    0.5472    2.2661 H         1 <0>         0.0427
     45 H11        -1.9752   -0.9728   -0.3095 H         1 <0>         0.0299
     46 H12        -2.1960   -1.5575    1.3356 H         1 <0>         0.0299
     47 H13         2.5536    1.1159   -1.5336 H         1 <0>         0.0621
     48 H14         5.0518    0.9741    2.0104 H         1 <0>         0.0621
     49 H15         3.4882    3.2747   -2.0985 H         1 <0>         0.0618
     50 H16         5.9996    3.1561    1.3854 H         1 <0>         0.0618
     51 H17         5.2247    4.3154   -0.6662 H         1 <0>         0.0618
     52 H18         5.5822   -3.4760   -0.3718 H         1 <0>         0.0694
     53 H19         6.7162   -2.1746    0.0963 H         1 <0>         0.0694
     54 H20        -4.2535    2.5860    1.3706 H         1 <0>         0.0621
     55 H21        -3.3322   -2.6705   -0.2583 H         1 <0>         0.0621
     56 H22        -3.2060    0.0753   -2.0047 H         1 <0>         0.0621
     57 H23        -6.4378    0.2307    0.6107 H         1 <0>         0.0621
     58 H24         6.7980   -1.4119   -2.2791 H         1 <0>         0.0262
     59 H25         5.6831   -2.6919   -2.7396 H         1 <0>         0.0262
     60 H26         7.3062   -3.1124   -2.1413 H         1 <0>         0.0262
     61 H27        -4.2997    4.5243   -0.0986 H         1 <0>         0.0618
     62 H28        -5.0225   -4.2464   -0.9947 H         1 <0>         0.0618
     63 H29        -3.2585    2.0573   -3.4589 H         1 <0>         0.0618
     64 H30        -8.1223   -1.3957   -0.1439 H         1 <0>         0.0618
     65 H31        -3.8053    4.2863   -2.5172 H         1 <0>         0.0618
     66 H32        -7.4258   -3.6363   -0.9490 H         1 <0>         0.0618
@<TRIPOS>BOND
     1    1   12 1
     2    1   23 1
     3    2   12 2
     4    3    8 1
     5    3    9 1
     6    3   10 1
     7    4   21 3
     8    5    6 1
     9    5    7 1
    10    5   11 1
    11    5   12 1
    12    6    8 1
    13    6   35 1
    14    6   36 1
    15    7    9 1
    16    7   37 1
    17    7   38 1
    18    8   39 1
    19    8   40 1
    20    9   41 1
    21    9   42 1
    22   10   13 1
    23   10   43 1
    24   10   44 1
    25   11   15 ar
    26   11   16 ar
    27   13   14 1
    28   13   45 1
    29   13   46 1
    30   14   17 1
    31   14   18 1
    32   14   21 1
    33   15   19 ar
    34   15   47 1
    35   16   20 ar
    36   16   48 1
    37   17   24 ar
    38   17   26 ar
    39   18   25 ar
    40   18   27 ar
    41   19   22 ar
    42   19   49 1
    43   20   22 ar
    44   20   50 1
    45   22   51 1
    46   23   28 1
    47   23   52 1
    48   23   53 1
    49   24   29 ar
    50   24   54 1
    51   25   30 ar
    52   25   55 1
    53   26   31 ar
    54   26   56 1
    55   27   32 ar
    56   27   57 1
    57   28   58 1
    58   28   59 1
    59   28   60 1
    60   29   33 ar
    61   29   61 1
    62   30   34 ar
    63   30   62 1
    64   31   33 ar
    65   31   63 1
    66   32   34 ar
    67   32   64 1
    68   33   65 1
    69   34   66 1
