@<TRIPOS>MOLECULE
DB01121
   23    23     0     0     0
SMALL
USER_CHARGES

@<TRIPOS>ATOM
      1 O1         -1.0085    1.7884    1.0021 O.2       1 <0>        -0.2750
      2 O2         -3.5796    0.8930    1.7275 O.2       1 <0>        -0.2527
      3 N1         -2.3069    0.1986   -0.1037 N.am      1 <0>        -0.2401
      4 N2         -4.3963   -0.6912    0.2774 N.am      1 <0>        -0.3130
      5 C1         -0.1375    0.7339   -0.9970 C.3       1 <0>         0.0495
      6 C2          1.1772    0.2327   -0.4601 C.ar      1 <0>        -0.0386
      7 C3          2.1642    1.1436   -0.1109 C.ar      1 <0>        -0.0581
      8 C4          1.3826   -1.1326   -0.3224 C.ar      1 <0>        -0.0581
      9 C5         -1.1701    0.9880    0.0848 C.2       1 <0>         0.2247
     10 C6          3.3819    0.6794    0.3862 C.ar      1 <0>        -0.0615
     11 C7          2.6004   -1.5968    0.1749 C.ar      1 <0>        -0.0615
     12 C8          3.5999   -0.6908    0.5292 C.ar      1 <0>        -0.0617
     13 C9         -3.4344    0.1989    0.7229 C.2       1 <0>         0.3033
     14 H1         -0.5104    0.0346   -1.7553 H         1 <0>         0.0407
     15 H2          0.0113    1.6811   -1.5318 H         1 <0>         0.0407
     16 H3          2.0038    2.2129   -0.2167 H         1 <0>         0.0620
     17 H4          0.6094   -1.8460   -0.5937 H         1 <0>         0.0620
     18 H5          4.1601    1.3847    0.6626 H         1 <0>         0.0618
     19 H6          2.7701   -2.6638    0.2868 H         1 <0>         0.0618
     20 H7          4.5480   -1.0523    0.9167 H         1 <0>         0.0618
     21 H8         -2.3330   -0.4347   -0.8980 H         1 <0>         0.1591
     22 H9         -4.2578   -1.2555   -0.5541 H         1 <0>         0.1465
     23 H10        -5.2742   -0.8061    0.7727 H         1 <0>         0.1465
@<TRIPOS>BOND
     1    1    9 2
     2    2   13 2
     3    3    9 am
     4    3   13 am
     5    3   21 1
     6    4   13 am
     7    4   22 1
     8    4   23 1
     9    5    6 1
    10    5    9 1
    11    5   14 1
    12    5   15 1
    13    6    7 ar
    14    6    8 ar
    15    7   10 ar
    16    7   16 1
    17    8   11 ar
    18    8   17 1
    19   10   12 ar
    20   10   18 1
    21   11   12 ar
    22   11   19 1
    23   12   20 1
