@<TRIPOS>MOLECULE
DB01044
   49    52     0     0     0
SMALL
USER_CHARGES

@<TRIPOS>ATOM
      1 F1         -1.2364   -3.3464   -0.0938 F         1 <0>        -0.2034
      2 O1         -0.1812    1.2366    0.3596 O.3       1 <0>        -0.4911
      3 O2          3.7918   -3.2387   -0.2930 O.2       1 <0>        -0.2863
      4 O3          6.1390   -2.2653   -0.9290 O.3       1 <0>        -0.4770
      5 O4          6.7175   -0.4855    0.3855 O.2       1 <0>        -0.2449
      6 N1          2.6586    0.6494    0.1751 N.pl3     1 <0>        -0.3397
      7 N2         -2.0535   -0.7357    0.2250 N.pl3     1 <0>        -0.3221
      8 N3         -4.8723   -0.3051    0.2885 N.3       1 <0>        -0.3105
      9 C1          2.3827    2.0953    0.3439 C.3       1 <0>         0.0348
     10 C2          2.9330    3.0931   -0.6182 C.3       1 <0>        -0.0302
     11 C3          1.4599    2.8089   -0.5854 C.3       1 <0>        -0.0302
     12 C4          1.6431   -0.3469    0.1100 C.ar      1 <0>         0.0973
     13 C5          3.9856    0.2780    0.0784 C.2       1 <0>         0.0232
     14 C6          0.2755   -0.0411    0.2015 C.ar      1 <0>         0.1679
     15 C7          2.0069   -1.7014   -0.0526 C.ar      1 <0>         0.0524
     16 C8         -0.6923   -1.0472    0.1330 C.ar      1 <0>         0.1098
     17 C9         -2.7787   -0.4334   -1.0175 C.3       1 <0>         0.0276
     18 C10        -4.0472    0.3779   -0.7143 C.3       1 <0>         0.0205
     19 C11        -2.8589   -1.3104    1.3072 C.3       1 <0>         0.0250
     20 C12        -4.1222   -0.4810    1.5306 C.3       1 <0>         0.0119
     21 C13         4.4372   -0.9726   -0.0767 C.2       1 <0>         0.1220
     22 C14         3.4429   -2.0730   -0.1536 C.2       1 <0>         0.2036
     23 C15         1.0363   -2.7084   -0.1210 C.ar      1 <0>        -0.0116
     24 C16        -0.3127   -2.3767   -0.0278 C.ar      1 <0>         0.1487
     25 C17        -4.8713    0.5822   -1.9842 C.3       1 <0>        -0.0482
     26 C18         5.8829   -1.1854   -0.1605 C.2       1 <0>         0.3420
     27 C19        -0.3428    1.7025    1.6961 C.3       1 <0>         0.0790
     28 H1          2.3923    2.3916    1.3878 H         1 <0>         0.0528
     29 H2          3.4847    2.7494   -1.4847 H         1 <0>         0.0286
     30 H3          3.2726    4.0428   -0.2228 H         1 <0>         0.0286
     31 H4          0.8352    3.6097   -0.2071 H         1 <0>         0.0286
     32 H5          1.0733    2.3233   -1.4747 H         1 <0>         0.0286
     33 H6          4.6748    1.1143    0.1483 H         1 <0>         0.0819
     34 H7         -3.0283   -1.3735   -1.5271 H         1 <0>         0.0479
     35 H8         -2.1413    0.1466   -1.6975 H         1 <0>         0.0479
     36 H9         -3.7648    1.3667   -0.3297 H         1 <0>         0.0473
     37 H10        -2.2824   -1.3319    2.2402 H         1 <0>         0.0476
     38 H11        -3.1338   -2.3438    1.0624 H         1 <0>         0.0476
     39 H12        -4.7610   -0.9783    2.2687 H         1 <0>         0.0439
     40 H13        -3.8651    0.5003    1.9482 H         1 <0>         0.0439
     41 H14        -5.1496   -1.2198   -0.0683 H         1 <0>         0.1223
     42 H15         1.3120   -3.7519   -0.2460 H         1 <0>         0.0654
     43 H16        -4.2862    1.1154   -2.7412 H         1 <0>         0.0245
     44 H17        -5.1906   -0.3726   -2.4172 H         1 <0>         0.0245
     45 H18        -5.7681    1.1767   -1.7776 H         1 <0>         0.0245
     46 H19         0.4703    1.3702    2.3497 H         1 <0>         0.0660
     47 H20        -1.2937    1.3410    2.0989 H         1 <0>         0.0660
     48 H21        -0.3746    2.7953    1.6924 H         1 <0>         0.0660
     49 H22         7.1008   -2.4409   -1.0095 H         1 <0>         0.2954
@<TRIPOS>BOND
     1    1   24 1
     2    2   14 1
     3    2   27 1
     4    3   22 2
     5    4   26 1
     6    4   49 1
     7    5   26 2
     8    6    9 1
     9    6   12 1
    10    6   13 2
    11    7   16 1
    12    7   17 1
    13    7   19 1
    14    8   18 1
    15    8   20 1
    16    8   41 1
    17    9   10 1
    18    9   11 1
    19    9   28 1
    20   10   11 1
    21   10   29 1
    22   10   30 1
    23   11   31 1
    24   11   32 1
    25   12   14 ar
    26   12   15 ar
    27   13   21 1
    28   13   33 1
    29   14   16 ar
    30   15   22 1
    31   15   23 ar
    32   16   24 ar
    33   17   18 1
    34   17   34 1
    35   17   35 1
    36   18   25 1
    37   18   36 1
    38   19   20 1
    39   19   37 1
    40   19   38 1
    41   20   39 1
    42   20   40 1
    43   21   22 1
    44   21   26 1
    45   23   24 ar
    46   23   42 1
    47   25   43 1
    48   25   44 1
    49   25   45 1
    50   27   46 1
    51   27   47 1
    52   27   48 1
