@<TRIPOS>MOLECULE
DB01181
   29    29     0     0     0
SMALL
USER_CHARGES

@<TRIPOS>ATOM
      1 Cl1        -1.1211    4.4042    0.2413 Cl        1 <0>        -0.1241
      2 Cl2         5.2043   -0.2674    0.0943 Cl        1 <0>        -0.1241
      3 P1         -0.0514    0.0338   -0.9763 P.3       1 <0>         0.3458
      4 O1         -0.2521   -1.5191   -1.4355 O.3       1 <0>        -0.3053
      5 O2          0.2128    0.8907   -2.1917 O.2       1 <0>        -0.2542
      6 N1         -1.4512    0.4095   -0.1485 N.pl3     1 <0>        -0.2178
      7 N2          1.1944    0.0167    0.1237 N.pl3     1 <0>        -0.2314
      8 C1         -1.9923   -0.6074    0.7624 C.3       1 <0>         0.0105
      9 C2         -2.1026   -1.9633    0.0569 C.3       1 <0>        -0.0156
     10 C3         -0.7627   -2.4472   -0.4853 C.3       1 <0>         0.0584
     11 C4         -1.5541    1.7354    0.4587 C.3       1 <0>         0.0218
     12 C5          2.5304   -0.2892   -0.3618 C.3       1 <0>         0.0188
     13 C6         -1.0173    2.7886   -0.4981 C.3       1 <0>         0.0358
     14 C7          3.5642    0.0861    0.6887 C.3       1 <0>         0.0356
     15 H1         -2.9936   -0.3201    1.1047 H         1 <0>         0.0432
     16 H2         -1.3525   -0.7051    1.6476 H         1 <0>         0.0432
     17 H3         -2.5037   -2.7053    0.7563 H         1 <0>         0.0300
     18 H4         -2.8157   -1.8729   -0.7722 H         1 <0>         0.0300
     19 H5         -0.0318   -2.5835    0.3182 H         1 <0>         0.0565
     20 H6         -0.8885   -3.4092   -0.9913 H         1 <0>         0.0565
     21 H7         -0.9835    1.7659    1.3954 H         1 <0>         0.0443
     22 H8         -2.6013    1.9594    0.6958 H         1 <0>         0.0443
     23 H9          1.0296   -0.4798    0.9986 H         1 <0>         0.1326
     24 H10         2.7271    0.2743   -1.2809 H         1 <0>         0.0441
     25 H11         2.5961   -1.3554   -0.6059 H         1 <0>         0.0441
     26 H12         0.0485    2.6722   -0.6949 H         1 <0>         0.0442
     27 H13        -1.5739    2.8158   -1.4395 H         1 <0>         0.0442
     28 H14         3.5225    1.1539    0.9262 H         1 <0>         0.0442
     29 H15         3.4194   -0.4818    1.6132 H         1 <0>         0.0442
@<TRIPOS>BOND
     1    1   13 1
     2    2   14 1
     3    3    4 1
     4    3    5 2
     5    3    6 1
     6    3    7 1
     7    4   10 1
     8    6    8 1
     9    6   11 1
    10    7   12 1
    11    7   23 1
    12    8    9 1
    13    8   15 1
    14    8   16 1
    15    9   10 1
    16    9   17 1
    17    9   18 1
    18   10   19 1
    19   10   20 1
    20   11   13 1
    21   11   21 1
    22   11   22 1
    23   12   14 1
    24   12   24 1
    25   12   25 1
    26   13   26 1
    27   13   27 1
    28   14   28 1
    29   14   29 1
