@<TRIPOS>MOLECULE
DB01080
   20    19     0     0     0
SMALL
USER_CHARGES

@<TRIPOS>ATOM
      1 O1          3.0453   -1.2919   -0.6493 O.co2     1 <0>        -0.5498
      2 O2          2.1635    0.5118   -1.7393 O.co2     1 <0>        -0.5498
      3 N1         -1.8353    1.1834   -0.3546 N.4       1 <0>         0.2236
      4 C1         -0.6649    0.2562   -0.2333 C.3       1 <0>        -0.0055
      5 C2          0.4614    1.0315    0.4736 C.3       1 <0>        -0.0009
      6 C3          1.7750    0.2569    0.5898 C.3       1 <0>        -0.0078
      7 C4         -1.0488   -1.0050    0.4895 C.2       1 <0>        -0.0436
      8 C5          2.3807   -0.2196   -0.7338 C.2       1 <0>         0.0420
      9 C6         -1.0336   -2.2195   -0.0716 C.2       1 <0>        -0.0974
     10 H1         -0.3837    0.0367   -1.2686 H         1 <0>         0.0897
     11 H2          0.1399    1.3220    1.4827 H         1 <0>         0.0327
     12 H3          0.6500    1.9680   -0.0681 H         1 <0>         0.0327
     13 H4          2.5224    0.9005    1.0703 H         1 <0>         0.0327
     14 H5          1.6373   -0.6061    1.2523 H         1 <0>         0.0327
     15 H6         -2.6174    0.7354   -0.8511 H         1 <0>         0.2000
     16 H7         -1.5898    2.0328   -0.8811 H         1 <0>         0.2000
     17 H8         -2.1845    1.4807    0.5666 H         1 <0>         0.2000
     18 H9         -1.3609   -0.9164    1.5273 H         1 <0>         0.0622
     19 H10        -1.3242   -3.0930    0.5018 H         1 <0>         0.0534
     20 H11        -0.7323   -2.3642   -1.1031 H         1 <0>         0.0534
@<TRIPOS>BOND
     1    1    8 2
     2    2    8 1
     3    3    4 1
     4    3   15 1
     5    3   16 1
     6    3   17 1
     7    4    5 1
     8    4    7 1
     9    4   10 1
    10    5    6 1
    11    5   11 1
    12    5   12 1
    13    6    8 1
    14    6   13 1
    15    6   14 1
    16    7    9 2
    17    7   18 1
    18    9   19 1
    19    9   20 1
