@<TRIPOS>MOLECULE
DB01262
   28    29     0     0     0
SMALL
USER_CHARGES

@<TRIPOS>ATOM
      1 O1          1.0231    0.1419    1.2408 O.3       1 <0>        -0.3483
      2 O2          3.1844   -1.8106    0.2982 O.3       1 <0>        -0.3890
      3 O3          1.9025    2.7617    0.7744 O.3       1 <0>        -0.3924
      4 O4         -1.8051   -2.7135    0.6193 O.2       1 <0>        -0.2443
      5 N1         -1.0290   -0.5639    0.3659 N.am      1 <0>        -0.2560
      6 N2         -3.3383   -1.0896    0.1814 N.2       1 <0>        -0.1594
      7 N3         -2.5988    1.1323   -0.0875 N.2       1 <0>        -0.2047
      8 N4         -4.8832    0.5838   -0.2652 N.pl3     1 <0>        -0.3273
      9 C1          2.4889   -0.7697   -0.3845 C.3       1 <0>         0.0876
     10 C2          1.0842   -1.2233   -0.7088 C.3       1 <0>         0.0214
     11 C3          2.2629    0.4057    0.5561 C.3       1 <0>         0.1100
     12 C4          0.3387   -0.9344    0.5838 C.3       1 <0>         0.1437
     13 C5          2.1194    1.7328   -0.1777 C.3       1 <0>         0.0729
     14 C6         -2.0476   -1.5259    0.4012 C.2       1 <0>         0.3545
     15 C7         -1.3884    0.7409    0.1157 C.2       1 <0>         0.1056
     16 C8         -3.5904    0.1726   -0.0494 C.2       1 <0>         0.2184
     17 H1          3.0753   -0.5070   -1.2699 H         1 <0>         0.0621
     18 H2          0.6832   -0.6225   -1.5342 H         1 <0>         0.0335
     19 H3          1.0070   -2.2781   -0.9906 H         1 <0>         0.0335
     20 H4          3.0417    0.4809    1.3231 H         1 <0>         0.0646
     21 H5          0.3912   -1.8034    1.2501 H         1 <0>         0.0841
     22 H6          1.2899    1.7342   -0.8889 H         1 <0>         0.0584
     23 H7          3.0402    1.9633   -0.7239 H         1 <0>         0.0584
     24 H8          3.2566   -2.5624   -0.3145 H         1 <0>         0.2099
     25 H9         -0.5796    1.4754    0.0991 H         1 <0>         0.1032
     26 H10         1.8276    3.5965    0.2816 H         1 <0>         0.2095
     27 H11        -5.1022    1.5573   -0.4463 H         1 <0>         0.1452
     28 H12        -5.6541   -0.0750   -0.2496 H         1 <0>         0.1452
@<TRIPOS>BOND
     1    1   11 1
     2    1   12 1
     3    2    9 1
     4    2   24 1
     5    3   13 1
     6    3   26 1
     7    4   14 2
     8    5   12 1
     9    5   14 am
    10    5   15 1
    11    6   14 1
    12    6   16 2
    13    7   15 2
    14    7   16 1
    15    8   16 1
    16    8   27 1
    17    8   28 1
    18    9   10 1
    19    9   11 1
    20    9   17 1
    21   10   12 1
    22   10   18 1
    23   10   19 1
    24   11   13 1
    25   11   20 1
    26   12   21 1
    27   13   22 1
    28   13   23 1
    29   15   25 1
