@<TRIPOS>MOLECULE
DB01213
   12    12     0     0     0
SMALL
USER_CHARGES

@<TRIPOS>ATOM
      1 N1         -1.8995   -0.2178   -0.0007 N.pl3     1 <0>        -0.2845
      2 N2         -1.7395    1.1167   -0.0007 N.2       1 <0>        -0.1821
      3 C1          0.2706    0.0316   -0.0001 C.2       1 <0>        -0.0133
      4 C2         -0.7261   -0.9134   -0.0001 C.2       1 <0>         0.0252
      5 C3          1.7248   -0.1946   -0.0002 C.3       1 <0>        -0.0368
      6 C4         -0.4118    1.2630   -0.0003 C.2       1 <0>         0.0520
      7 H1         -0.7088   -1.9941    0.0001 H         1 <0>         0.0826
      8 H2          1.9906   -1.0400   -0.6431 H         1 <0>         0.0278
      9 H3          2.2630    0.6855   -0.3670 H         1 <0>         0.0278
     10 H4          2.0780   -0.4109    1.0132 H         1 <0>         0.0278
     11 H5          0.0003    2.2621   -0.0002 H         1 <0>         0.0850
     12 H6         -2.8416   -0.5881   -0.0009 H         1 <0>         0.1882
@<TRIPOS>BOND
     1    1    2 1
     2    1    4 2
     3    1   12 1
     4    2    6 1
     5    3    4 1
     6    3    5 1
     7    3    6 2
     8    4    7 1
     9    5    8 1
    10    5    9 1
    11    5   10 1
    12    6   11 1
