@<TRIPOS>MOLECULE
DB01216
   63    66     0     0     0
SMALL
USER_CHARGES

@<TRIPOS>ATOM
      1 O1          3.7757    1.4527   -0.9889 O.2       1 <0>        -0.2755
      2 O2         -7.4501   -1.9172    0.5199 O.2       1 <0>        -0.2708
      3 N1         -5.8722   -0.2531    0.2690 N.am      1 <0>        -0.3082
      4 N2          3.8692   -0.2725    0.5712 N.am      1 <0>        -0.3103
      5 C1         -0.3599    1.4292    0.4414 C.3       1 <0>        -0.0318
      6 C2          0.7614    0.5228   -0.1119 C.3       1 <0>        -0.0179
      7 C3         -1.7483    1.0509   -0.0863 C.3       1 <0>        -0.0340
      8 C4         -2.0573   -0.4250    0.3441 C.3       1 <0>        -0.0274
      9 C5         -3.4941   -0.8665   -0.1103 C.3       1 <0>         0.0078
     10 C6          1.9792    1.1957    0.5595 C.3       1 <0>         0.0412
     11 C7          0.4798   -0.9124    0.3533 C.3       1 <0>        -0.0464
     12 C8         -0.9176   -1.3892   -0.0846 C.3       1 <0>        -0.0486
     13 C9          0.1716    2.8371    0.1967 C.3       1 <0>        -0.0487
     14 C10        -2.8256    2.0288    0.4089 C.3       1 <0>        -0.0480
     15 C11         1.6835    2.7071    0.4556 C.3       1 <0>        -0.0411
     16 C12        -4.4963    0.1643    0.4834 C.3       1 <0>         0.0325
     17 C13        -4.2348    1.5927    0.0135 C.3       1 <0>        -0.0334
     18 C14         0.8919    0.5550   -1.6577 C.3       1 <0>        -0.0586
     19 C15        -3.5978   -0.9661   -1.6513 C.3       1 <0>        -0.0541
     20 C16        -3.9108   -2.2221    0.4450 C.2       1 <0>        -0.0712
     21 C17         3.2999    0.8295   -0.0435 C.2       1 <0>         0.2170
     22 C18        -5.1816   -2.5289    0.7472 C.2       1 <0>        -0.0032
     23 C19        -6.2778   -1.5516    0.5063 C.2       1 <0>         0.2369
     24 C20         5.1330   -0.8412    0.1616 C.3       1 <0>         0.0262
     25 C21         5.4600   -2.0444    1.0535 C.3       1 <0>        -0.0442
     26 C22         5.0297   -1.2913   -1.2993 C.3       1 <0>        -0.0442
     27 C23         6.2337    0.2165    0.3023 C.3       1 <0>        -0.0442
     28 H1         -0.3977    1.3057    1.5370 H         1 <0>         0.0309
     29 H2         -1.7405    1.1174   -1.1790 H         1 <0>         0.0307
     30 H3         -2.0564   -0.4404    1.4459 H         1 <0>         0.0312
     31 H4          1.9985    0.9420    1.6294 H         1 <0>         0.0400
     32 H5          0.5420   -0.9732    1.4476 H         1 <0>         0.0271
     33 H6          1.2377   -1.6017   -0.0379 H         1 <0>         0.0271
     34 H7         -0.9244   -1.5290   -1.1700 H         1 <0>         0.0268
     35 H8         -1.0775   -2.3804    0.3527 H         1 <0>         0.0268
     36 H9         -0.2839    3.5727    0.8674 H         1 <0>         0.0268
     37 H10        -0.0163    3.1648   -0.8317 H         1 <0>         0.0268
     38 H11        -2.6396    3.0307    0.0049 H         1 <0>         0.0269
     39 H12        -2.7714    2.1149    1.5019 H         1 <0>         0.0269
     40 H13         2.2405    3.2185   -0.3363 H         1 <0>         0.0273
     41 H14         1.9518    3.2010    1.3970 H         1 <0>         0.0273
     42 H15        -4.3843    0.1638    1.5793 H         1 <0>         0.0507
     43 H16        -4.9617    2.2763    0.4693 H         1 <0>         0.0283
     44 H17        -4.3727    1.6817   -1.0701 H         1 <0>         0.0283
     45 H18         1.6719   -0.1374   -1.9953 H         1 <0>         0.0235
     46 H19        -0.0279    0.2555   -2.1666 H         1 <0>         0.0235
     47 H20         1.1528    1.5482   -2.0365 H         1 <0>         0.0235
     48 H21        -2.9762   -1.7787   -2.0439 H         1 <0>         0.0239
     49 H22        -4.6237   -1.1744   -1.9777 H         1 <0>         0.0239
     50 H23        -3.2895   -0.0470   -2.1560 H         1 <0>         0.0239
     51 H24        -3.1609   -2.9963    0.5687 H         1 <0>         0.0580
     52 H25        -6.5858    0.4539    0.1194 H         1 <0>         0.1493
     53 H26        -5.4527   -3.5159    1.1041 H         1 <0>         0.0666
     54 H27         3.3715   -0.7183    1.3370 H         1 <0>         0.1492
     55 H28         4.6819   -2.8133    0.9804 H         1 <0>         0.0250
     56 H29         6.4139   -2.5039    0.7719 H         1 <0>         0.0250
     57 H30         5.5268   -1.7491    2.1072 H         1 <0>         0.0250
     58 H31         4.8992   -0.4588   -1.9971 H         1 <0>         0.0250
     59 H32         4.1835   -1.9738   -1.4427 H         1 <0>         0.0250
     60 H33         5.9383   -1.8217   -1.6074 H         1 <0>         0.0250
     61 H34         6.2614    0.6240    1.3198 H         1 <0>         0.0250
     62 H35         7.2186   -0.2174    0.0925 H         1 <0>         0.0250
     63 H36         6.1081    1.0594   -0.3839 H         1 <0>         0.0250
@<TRIPOS>BOND
     1    1   21 2
     2    2   23 2
     3    3   16 1
     4    3   23 am
     5    3   52 1
     6    4   21 am
     7    4   24 1
     8    4   54 1
     9    5    6 1
    10    5    7 1
    11    5   13 1
    12    5   28 1
    13    6   10 1
    14    6   11 1
    15    6   18 1
    16    7    8 1
    17    7   14 1
    18    7   29 1
    19    8    9 1
    20    8   12 1
    21    8   30 1
    22    9   16 1
    23    9   19 1
    24    9   20 1
    25   10   15 1
    26   10   21 1
    27   10   31 1
    28   11   12 1
    29   11   32 1
    30   11   33 1
    31   12   34 1
    32   12   35 1
    33   13   15 1
    34   13   36 1
    35   13   37 1
    36   14   17 1
    37   14   38 1
    38   14   39 1
    39   15   40 1
    40   15   41 1
    41   16   17 1
    42   16   42 1
    43   17   43 1
    44   17   44 1
    45   18   45 1
    46   18   46 1
    47   18   47 1
    48   19   48 1
    49   19   49 1
    50   19   50 1
    51   20   22 2
    52   20   51 1
    53   22   23 1
    54   22   53 1
    55   24   25 1
    56   24   26 1
    57   24   27 1
    58   25   55 1
    59   25   56 1
    60   25   57 1
    61   26   58 1
    62   26   59 1
    63   26   60 1
    64   27   61 1
    65   27   62 1
    66   27   63 1
