@<TRIPOS>MOLECULE
DB01053
   41    43     0     0     0
SMALL
USER_CHARGES

@<TRIPOS>ATOM
      1 S1          0.9372    0.7616   -0.5518 S.3       1 <0>        -0.1273
      2 O1          2.0689   -3.1212    1.1960 O.2       1 <0>        -0.2734
      3 O2          5.4433    0.2177    0.8278 O.3       1 <0>        -0.4793
      4 O3          5.0675   -1.5344   -0.5811 O.2       1 <0>        -0.2489
      5 O4         -2.2910   -2.2429   -1.2690 O.2       1 <0>        -0.2754
      6 N1          2.4337   -1.3435   -0.3129 N.am      1 <0>        -0.2708
      7 N2         -0.6625   -1.7171    0.2985 N.am      1 <0>        -0.3015
      8 C1          1.3058   -0.9276   -1.1517 C.3       1 <0>         0.1005
      9 C2          2.7297    1.0453   -0.1323 C.3       1 <0>         0.0417
     10 C3          3.2069   -0.3315    0.3780 C.3       1 <0>         0.1379
     11 C4          0.5010   -2.0745   -0.5253 C.3       1 <0>         0.1277
     12 C5          1.7754   -2.3772    0.2880 C.2       1 <0>         0.2402
     13 C6          3.4399    1.5353   -1.4014 C.3       1 <0>        -0.0484
     14 C7          2.8218    2.1087    0.9636 C.3       1 <0>        -0.0484
     15 C8          4.6507   -0.6375    0.1367 C.2       1 <0>         0.3269
     16 C9         -1.9786   -1.8347   -0.1535 C.2       1 <0>         0.2180
     17 C10        -2.9837   -1.3966    0.8937 C.3       1 <0>         0.0491
     18 C11        -3.8486   -0.2480    0.4465 C.ar      1 <0>        -0.0386
     19 C12        -3.4354    1.0540    0.6908 C.ar      1 <0>        -0.0581
     20 C13        -5.0472   -0.5078   -0.2035 C.ar      1 <0>        -0.0581
     21 C14        -4.2367    2.1180    0.2767 C.ar      1 <0>        -0.0615
     22 C15        -5.8484    0.5563   -0.6178 C.ar      1 <0>        -0.0615
     23 C16        -5.4432    1.8693   -0.3777 C.ar      1 <0>        -0.0617
     24 H1          1.5161   -1.0176   -2.2213 H         1 <0>         0.0640
     25 H2          3.0138   -0.4547    1.4522 H         1 <0>         0.0631
     26 H3          0.2732   -2.8863   -1.2274 H         1 <0>         0.0622
     27 H4          3.4287    0.7842   -2.1993 H         1 <0>         0.0244
     28 H5          2.9745    2.4475   -1.7938 H         1 <0>         0.0244
     29 H6          4.4886    1.7805   -1.1998 H         1 <0>         0.0244
     30 H7          2.3959    3.0636    0.6334 H         1 <0>         0.0244
     31 H8          2.2913    1.8036    1.8732 H         1 <0>         0.0244
     32 H9          3.8634    2.3004    1.2425 H         1 <0>         0.0244
     33 H10        -0.5080   -1.3564    1.2371 H         1 <0>         0.1495
     34 H11         6.3957    0.0338    0.6818 H         1 <0>         0.2951
     35 H12        -3.6076   -2.2684    1.1303 H         1 <0>         0.0407
     36 H13        -2.4893   -1.1343    1.8370 H         1 <0>         0.0407
     37 H14        -2.4963    1.2583    1.1978 H         1 <0>         0.0620
     38 H15        -5.3712   -1.5265   -0.3969 H         1 <0>         0.0620
     39 H16        -3.9208    3.1404    0.4630 H         1 <0>         0.0618
     40 H17        -6.7875    0.3626   -1.1278 H         1 <0>         0.0618
     41 H18        -6.0668    2.6977   -0.7005 H         1 <0>         0.0618
@<TRIPOS>BOND
     1    1    8 1
     2    1    9 1
     3    2   12 2
     4    3   15 1
     5    3   34 1
     6    4   15 2
     7    5   16 2
     8    6    8 1
     9    6   10 1
    10    6   12 am
    11    7   11 1
    12    7   16 am
    13    7   33 1
    14    8   11 1
    15    8   24 1
    16    9   10 1
    17    9   13 1
    18    9   14 1
    19   10   15 1
    20   10   25 1
    21   11   12 1
    22   11   26 1
    23   13   27 1
    24   13   28 1
    25   13   29 1
    26   14   30 1
    27   14   31 1
    28   14   32 1
    29   16   17 1
    30   17   18 1
    31   17   35 1
    32   17   36 1
    33   18   19 ar
    34   18   20 ar
    35   19   21 ar
    36   19   37 1
    37   20   22 ar
    38   20   38 1
    39   21   23 ar
    40   21   39 1
    41   22   23 ar
    42   22   40 1
    43   23   41 1
