@<TRIPOS>MOLECULE
DB01001
   38    38     0     0     0
SMALL
USER_CHARGES

@<TRIPOS>ATOM
      1 O1          0.3023   -2.2323   -2.1747 O.3       1 <0>        -0.3859
      2 O2          4.4863    0.1638    1.7869 O.3       1 <0>        -0.5064
      3 O3          4.5097    1.1780   -1.4464 O.3       1 <0>        -0.3903
      4 N1         -1.6037   -0.4134    0.4341 N.3       1 <0>        -0.3086
      5 C1         -2.6835    0.5775    0.3781 C.3       1 <0>         0.0108
      6 C2         -1.2036   -0.8092   -0.9055 C.3       1 <0>         0.0266
      7 C3         -0.0772   -1.8485   -0.8538 C.3       1 <0>         0.0926
      8 C4         -3.0616    0.9697    1.8104 C.3       1 <0>        -0.0473
      9 C5         -2.1798    1.8056   -0.3876 C.3       1 <0>        -0.0473
     10 C6         -3.8949   -0.0302   -0.3388 C.3       1 <0>        -0.0473
     11 C7          1.1465   -1.3050   -0.1492 C.ar      1 <0>        -0.0174
     12 C8          1.7498   -0.1562   -0.6311 C.ar      1 <0>        -0.0472
     13 C9          1.6362   -1.9686    0.9625 C.ar      1 <0>        -0.0526
     14 C10         2.8777    0.3446    0.0191 C.ar      1 <0>         0.0195
     15 C11         3.3849   -0.3111    1.1409 C.ar      1 <0>         0.1222
     16 C12         2.7640   -1.4677    1.6126 C.ar      1 <0>        -0.0195
     17 C13         3.5297    1.5837   -0.4993 C.3       1 <0>         0.0727
     18 H1         -2.0220   -1.2871   -1.4553 H         1 <0>         0.0453
     19 H2         -0.8685    0.0251   -1.5282 H         1 <0>         0.0453
     20 H3         -1.9080   -1.2328    0.9592 H         1 <0>         0.1225
     21 H4         -0.4349   -2.7553   -0.3497 H         1 <0>         0.0656
     22 H5         -3.4162    0.1037    2.3818 H         1 <0>         0.0247
     23 H6         -3.8610    1.7193    1.8183 H         1 <0>         0.0247
     24 H7         -2.2049    1.3949    2.3464 H         1 <0>         0.0247
     25 H8         -2.1242    1.6571   -1.4710 H         1 <0>         0.0247
     26 H9         -1.1967    2.1338   -0.0288 H         1 <0>         0.0247
     27 H10        -2.8662    2.6489   -0.2401 H         1 <0>         0.0247
     28 H11        -3.7583   -0.1319   -1.4204 H         1 <0>         0.0247
     29 H12        -4.7729    0.6148   -0.2082 H         1 <0>         0.0247
     30 H13        -4.1595   -1.0118    0.0719 H         1 <0>         0.0247
     31 H14         1.3696    0.3501   -1.5138 H         1 <0>         0.0626
     32 H15         1.1613   -2.8696    1.3394 H         1 <0>         0.0622
     33 H16        -0.4889   -2.5856   -2.6160 H         1 <0>         0.2103
     34 H17         3.1542   -1.9834    2.4859 H         1 <0>         0.0654
     35 H18         2.7982    2.2215   -1.0090 H         1 <0>         0.0608
     36 H19         3.9890    2.1947    0.2836 H         1 <0>         0.0608
     37 H20         5.0087    0.7257    1.1928 H         1 <0>         0.2921
     38 H21         4.9187    1.9875   -1.7972 H         1 <0>         0.2098
@<TRIPOS>BOND
     1    1    7 1
     2    1   33 1
     3    2   15 1
     4    2   37 1
     5    3   17 1
     6    3   38 1
     7    4    5 1
     8    4    6 1
     9    4   20 1
    10    5    8 1
    11    5    9 1
    12    5   10 1
    13    6    7 1
    14    6   18 1
    15    6   19 1
    16    7   11 1
    17    7   21 1
    18    8   22 1
    19    8   23 1
    20    8   24 1
    21    9   25 1
    22    9   26 1
    23    9   27 1
    24   10   28 1
    25   10   29 1
    26   10   30 1
    27   11   12 ar
    28   11   13 ar
    29   12   14 ar
    30   12   31 1
    31   13   16 ar
    32   13   32 1
    33   14   15 ar
    34   14   17 1
    35   15   16 ar
    36   16   34 1
    37   17   35 1
    38   17   36 1
