@<TRIPOS>MOLECULE
DB01047
   67    71     0     0     0
SMALL
USER_CHARGES

@<TRIPOS>ATOM
      1 F1          2.0620   -0.0888    1.4523 F         1 <0>        -0.2377
      2 F2          5.0155   -2.4082   -0.7183 F         1 <0>        -0.2407
      3 O1         -2.1625   -1.1264    0.8351 O.3       1 <0>        -0.3320
      4 O2         -2.2271   -3.0876   -0.4583 O.3       1 <0>        -0.3426
      5 O3          1.2104    2.5652   -0.8152 O.3       1 <0>        -0.3886
      6 O4         -3.9776   -0.4619   -1.7927 O.2       1 <0>        -0.2906
      7 O5         -4.9134    1.4992   -0.0957 O.3       1 <0>        -0.4570
      8 O6          6.6777    0.3962    2.9438 O.2       1 <0>        -0.2879
      9 O7         -4.5523    3.4845    1.0290 O.2       1 <0>        -0.2512
     10 C1         -0.6830    0.0905   -0.7347 C.3       1 <0>         0.0123
     11 C2          0.3658   -1.0368   -0.6041 C.3       1 <0>        -0.0240
     12 C3          1.8044   -0.5582   -0.8430 C.3       1 <0>         0.0030
     13 C4         -1.9786   -0.7341   -0.5228 C.3       1 <0>         0.1651
     14 C5          2.1573    0.5395    0.2199 C.3       1 <0>         0.1528
     15 C6         -1.7324   -2.0385   -1.2858 C.3       1 <0>         0.0987
     16 C7         -0.2042   -2.1601   -1.4732 C.3       1 <0>        -0.0195
     17 C8         -0.3679    1.1372    0.3503 C.3       1 <0>        -0.0150
     18 C9          1.0830    1.6683    0.2771 C.3       1 <0>         0.0910
     19 C10         3.6597    1.0144    0.1030 C.3       1 <0>         0.0469
     20 C11         2.7835   -1.7408   -0.7628 C.3       1 <0>        -0.0117
     21 C12        -0.7110    0.7455   -2.1427 C.3       1 <0>        -0.0561
     22 C13         4.2357   -1.2983   -0.8741 C.3       1 <0>         0.1237
     23 C14        -3.2331   -0.0139   -0.9220 C.2       1 <0>         0.2051
     24 C15        -2.5073   -2.5149    0.8204 C.3       1 <0>         0.1663
     25 C16         4.5451   -0.2392    0.1550 C.2       1 <0>        -0.0198
     26 C17         3.9813    1.7710   -1.2066 C.3       1 <0>        -0.0492
     27 C18         3.9952    1.9737    1.2360 C.2       1 <0>        -0.0674
     28 C19        -3.5217    1.2828   -0.1957 C.3       1 <0>         0.1531
     29 C20        -3.9968   -2.6545    1.1112 C.3       1 <0>        -0.0108
     30 C21        -1.6886   -3.2519    1.8765 C.3       1 <0>        -0.0108
     31 C22         5.5085   -0.4293    1.0705 C.2       1 <0>        -0.0121
     32 C23         4.9520    1.7867    2.1501 C.2       1 <0>        -0.0179
     33 C24         5.7862    0.5722    2.1204 C.2       1 <0>         0.1788
     34 C25        -5.3027    2.6476    0.5455 C.2       1 <0>         0.3043
     35 C26        -6.7978    2.7439    0.5755 C.3       1 <0>         0.0332
     36 H1          0.3427   -1.4159    0.4290 H         1 <0>         0.0312
     37 H2          1.8872   -0.1368   -1.8494 H         1 <0>         0.0336
     38 H3         -2.2212   -2.1076   -2.2625 H         1 <0>         0.0631
     39 H4          0.0616   -1.9964   -2.5238 H         1 <0>         0.0294
     40 H5          0.1753   -3.1417   -1.1719 H         1 <0>         0.0294
     41 H6         -0.5189    0.7043    1.3468 H         1 <0>         0.0297
     42 H7         -1.0393    1.9962    0.2652 H         1 <0>         0.0297
     43 H8          1.2281    2.2495    1.1962 H         1 <0>         0.0626
     44 H9          2.5771   -2.4626   -1.5624 H         1 <0>         0.0300
     45 H10         2.6429   -2.2913    0.1771 H         1 <0>         0.0300
     46 H11        -1.0922    0.0651   -2.9116 H         1 <0>         0.0236
     47 H12        -1.3513    1.6329   -2.1567 H         1 <0>         0.0236
     48 H13         0.2741    1.0677   -2.4853 H         1 <0>         0.0236
     49 H14         4.4420   -0.9155   -1.8788 H         1 <0>         0.0699
     50 H15         3.6150    2.8024   -1.2005 H         1 <0>         0.0242
     51 H16         5.0661    1.8407   -1.3637 H         1 <0>         0.0242
     52 H17         3.5637    1.2807   -2.0907 H         1 <0>         0.0242
     53 H18         3.4282    2.9002    1.2951 H         1 <0>         0.0583
     54 H19         1.6293    3.3770   -0.4827 H         1 <0>         0.2099
     55 H20        -3.0649    2.1056   -0.7520 H         1 <0>         0.0779
     56 H21        -3.1179    1.2308    0.8194 H         1 <0>         0.0779
     57 H22        -4.2614   -2.1849    2.0644 H         1 <0>         0.0281
     58 H23        -4.5983   -2.1710    0.3345 H         1 <0>         0.0281
     59 H24        -4.2990   -3.7071    1.1333 H         1 <0>         0.0281
     60 H25        -0.6177   -3.1721    1.6614 H         1 <0>         0.0281
     61 H26        -1.8505   -2.8269    2.8726 H         1 <0>         0.0281
     62 H27        -1.9318   -4.3195    1.8951 H         1 <0>         0.0281
     63 H28         6.1128   -1.3298    1.0895 H         1 <0>         0.0656
     64 H29         5.1445    2.5209    2.9236 H         1 <0>         0.0653
     65 H30        -7.1869    2.7766   -0.4451 H         1 <0>         0.0342
     66 H31        -7.0923    3.6626    1.0910 H         1 <0>         0.0342
     67 H32        -7.2125    1.8912    1.1187 H         1 <0>         0.0342
@<TRIPOS>BOND
     1    1   14 1
     2    2   22 1
     3    3   13 1
     4    3   24 1
     5    4   15 1
     6    4   24 1
     7    5   18 1
     8    5   54 1
     9    6   23 2
    10    7   28 1
    11    7   34 1
    12    8   33 2
    13    9   34 2
    14   10   11 1
    15   10   13 1
    16   10   17 1
    17   10   21 1
    18   11   12 1
    19   11   16 1
    20   11   36 1
    21   12   14 1
    22   12   20 1
    23   12   37 1
    24   13   15 1
    25   13   23 1
    26   14   18 1
    27   14   19 1
    28   15   16 1
    29   15   38 1
    30   16   39 1
    31   16   40 1
    32   17   18 1
    33   17   41 1
    34   17   42 1
    35   18   43 1
    36   19   25 1
    37   19   26 1
    38   19   27 1
    39   20   22 1
    40   20   44 1
    41   20   45 1
    42   21   46 1
    43   21   47 1
    44   21   48 1
    45   22   25 1
    46   22   49 1
    47   23   28 1
    48   24   29 1
    49   24   30 1
    50   25   31 2
    51   26   50 1
    52   26   51 1
    53   26   52 1
    54   27   32 2
    55   27   53 1
    56   28   55 1
    57   28   56 1
    58   29   57 1
    59   29   58 1
    60   29   59 1
    61   30   60 1
    62   30   61 1
    63   30   62 1
    64   31   33 1
    65   31   63 1
    66   32   33 1
    67   32   64 1
    68   34   35 1
    69   35   65 1
    70   35   66 1
    71   35   67 1
