@<TRIPOS>MOLECULE
DB01177
   63    67     0     0     0
SMALL
USER_CHARGES

@<TRIPOS>ATOM
      1 O1         -1.4503    0.4943   -0.0424 O.3       1 <0>        -0.3432
      2 O2         -3.7806    0.3497    0.3769 O.3       1 <0>        -0.3457
      3 O3         -1.7604   -4.2048   -0.8323 O.3       1 <0>        -0.3806
      4 O4         -5.4257    2.6940    0.0298 O.3       1 <0>        -0.3877
      5 O5          0.7844    1.4285    0.9673 O.3       1 <0>        -0.5057
      6 O6          3.1593   -3.0593   -1.1933 O.3       1 <0>        -0.5057
      7 O7          0.0802   -3.9906    1.8442 O.2       1 <0>        -0.2946
      8 O8          3.0377    2.5235    0.9597 O.2       1 <0>        -0.2865
      9 O9          5.3542   -1.8280   -1.1000 O.2       1 <0>        -0.2865
     10 N1         -3.2099    4.4604   -0.3411 N.3       1 <0>        -0.3249
     11 C1         -0.8928   -0.7483    0.3834 C.3       1 <0>         0.0934
     12 C2         -0.9783   -3.2234   -0.1565 C.3       1 <0>         0.1300
     13 C3         -1.6727   -1.8749   -0.2976 C.3       1 <0>         0.0140
     14 C4          0.4249   -3.1794   -0.7655 C.3       1 <0>         0.0122
     15 C5          0.5906   -0.7809    0.0893 C.ar      1 <0>         0.0302
     16 C6          1.2098   -1.9363   -0.4208 C.ar      1 <0>         0.0070
     17 C7         -2.5282    0.8923    0.8000 C.3       1 <0>         0.1618
     18 C8         -3.0639    3.0105   -0.4561 C.3       1 <0>         0.0382
     19 C9         -2.5858    2.4192    0.8751 C.3       1 <0>         0.0161
     20 C10        -4.3831    2.3533   -0.8855 C.3       1 <0>         0.0963
     21 C11        -4.2203    0.8262   -0.9019 C.3       1 <0>         0.0861
     22 C12         1.3836    0.3394    0.3961 C.ar      1 <0>         0.1345
     23 C13        -0.9665   -3.6906    1.2719 C.2       1 <0>         0.1620
     24 C14         2.5943   -1.9330   -0.6617 C.ar      1 <0>         0.1322
     25 C15         2.7642    0.3299    0.1628 C.ar      1 <0>         0.0783
     26 C16         3.3687   -0.8049   -0.3706 C.ar      1 <0>         0.0782
     27 C17        -5.5250    0.1073   -1.2279 C.3       1 <0>        -0.0361
     28 C18        -2.2980   -3.7712    1.9685 C.3       1 <0>        -0.0032
     29 C19         3.5686    1.5261    0.4871 C.2       1 <0>         0.1981
     30 C20         4.8234   -0.8304   -0.6275 C.2       1 <0>         0.1981
     31 C21         5.0234    1.5025    0.2320 C.ar      1 <0>         0.0332
     32 C22         5.6288    0.3652   -0.3064 C.ar      1 <0>         0.0332
     33 C23         5.7975    2.6295    0.5331 C.ar      1 <0>        -0.0502
     34 C24         7.0085    0.3548   -0.5438 C.ar      1 <0>        -0.0502
     35 C25         7.1720    2.6148    0.2948 C.ar      1 <0>        -0.0610
     36 C26         7.7763    1.4799   -0.2423 C.ar      1 <0>        -0.0610
     37 H1         -0.9721   -0.8713    1.4727 H         1 <0>         0.0649
     38 H2         -2.7026   -1.9166    0.0740 H         1 <0>         0.0326
     39 H3         -1.7940   -1.6448   -1.3669 H         1 <0>         0.0326
     40 H4          0.3383   -3.2232   -1.8603 H         1 <0>         0.0347
     41 H5          0.9821   -4.0794   -0.4745 H         1 <0>         0.0347
     42 H6         -2.3656    0.5446    1.8271 H         1 <0>         0.0910
     43 H7         -2.3089    2.8106   -1.2265 H         1 <0>         0.0486
     44 H8         -1.6018    2.8283    1.1310 H         1 <0>         0.0330
     45 H9         -3.2826    2.7060    1.6735 H         1 <0>         0.0330
     46 H10        -4.6850    2.7048   -1.8795 H         1 <0>         0.0635
     47 H11        -3.4764    0.5417   -1.6567 H         1 <0>         0.0620
     48 H12        -1.2541   -5.0352   -0.8521 H         1 <0>         0.2108
     49 H13        -5.3561   -0.9742   -1.2766 H         1 <0>         0.0255
     50 H14        -6.2780    0.2666   -0.4485 H         1 <0>         0.0255
     51 H15        -5.9321    0.4382   -2.1880 H         1 <0>         0.0255
     52 H16        -2.3151    4.8717   -0.0766 H         1 <0>         0.1186
     53 H17        -3.8522    4.6867    0.4172 H         1 <0>         0.1186
     54 H18        -2.6349   -2.7717    2.2525 H         1 <0>         0.0307
     55 H19        -3.0448   -4.2580    1.3375 H         1 <0>         0.0307
     56 H20        -2.1886   -4.3709    2.8774 H         1 <0>         0.0307
     57 H21        -5.5833    3.6497   -0.0515 H         1 <0>         0.2100
     58 H22        -0.0237    1.1578    1.4291 H         1 <0>         0.2922
     59 H23         4.0503   -2.8767   -1.5260 H         1 <0>         0.2922
     60 H24         5.3502    3.5267    0.9526 H         1 <0>         0.0625
     61 H25         7.5034   -0.5177   -0.9618 H         1 <0>         0.0625
     62 H26         7.7720    3.4895    0.5287 H         1 <0>         0.0618
     63 H27         8.8467    1.4712   -0.4266 H         1 <0>         0.0618
@<TRIPOS>BOND
     1    1   11 1
     2    1   17 1
     3    2   17 1
     4    2   21 1
     5    3   12 1
     6    3   48 1
     7    4   20 1
     8    4   57 1
     9    5   22 1
    10    5   58 1
    11    6   24 1
    12    6   59 1
    13    7   23 2
    14    8   29 2
    15    9   30 2
    16   10   18 1
    17   10   52 1
    18   10   53 1
    19   11   13 1
    20   11   15 1
    21   11   37 1
    22   12   13 1
    23   12   14 1
    24   12   23 1
    25   13   38 1
    26   13   39 1
    27   14   16 1
    28   14   40 1
    29   14   41 1
    30   15   16 ar
    31   15   22 ar
    32   16   24 ar
    33   17   19 1
    34   17   42 1
    35   18   19 1
    36   18   20 1
    37   18   43 1
    38   19   44 1
    39   19   45 1
    40   20   21 1
    41   20   46 1
    42   21   27 1
    43   21   47 1
    44   22   25 ar
    45   23   28 1
    46   24   26 ar
    47   25   26 ar
    48   25   29 1
    49   26   30 1
    50   27   49 1
    51   27   50 1
    52   27   51 1
    53   28   54 1
    54   28   55 1
    55   28   56 1
    56   29   31 1
    57   30   32 1
    58   31   32 ar
    59   31   33 ar
    60   32   34 ar
    61   33   35 ar
    62   33   60 1
    63   34   36 ar
    64   34   61 1
    65   35   36 ar
    66   35   62 1
    67   36   63 1
