@<TRIPOS>MOLECULE
DB01616
   48    49     0     0     0
SMALL
USER_CHARGES

@<TRIPOS>ATOM
      1 N1          0.0113   -1.8096    0.3706 N.3       1 <0>        -0.3026
      2 C1          0.3539   -0.9425    1.4918 C.3       1 <0>        -0.0008
      3 C2         -1.3363   -2.3571    0.5355 C.3       1 <0>        -0.0008
      4 C3          1.7363   -0.3262    1.2828 C.3       1 <0>        -0.0362
      5 C4         -2.3555   -1.2271    0.6720 C.3       1 <0>        -0.0362
      6 C5          0.9869   -2.8931    0.2401 C.3       1 <0>        -0.0039
      7 C6          1.7849    0.4925   -0.0098 C.3       1 <0>        -0.0265
      8 C7         -2.3374   -0.3172   -0.5590 C.3       1 <0>        -0.0265
      9 C8          0.6419   -3.8049   -0.9252 C.3       1 <0>        -0.0524
     10 C9          3.1321    1.1378   -0.2108 C.ar      1 <0>        -0.0473
     11 C10        -3.3640    0.7816   -0.4554 C.ar      1 <0>        -0.0473
     12 C11         3.3643    2.4053    0.3025 C.ar      1 <0>        -0.0586
     13 C12        -4.6435    0.5672   -0.9459 C.ar      1 <0>        -0.0586
     14 C13         4.1188    0.4538   -0.9056 C.ar      1 <0>        -0.0586
     15 C14        -3.0131    1.9896    0.1289 C.ar      1 <0>        -0.0586
     16 C15         4.6110    3.0025    0.1167 C.ar      1 <0>        -0.0615
     17 C16        -5.5937    1.5838   -0.8499 C.ar      1 <0>        -0.0615
     18 C17         5.3656    1.0510   -1.0913 C.ar      1 <0>        -0.0615
     19 C18        -3.9635    3.0061    0.2250 C.ar      1 <0>        -0.0615
     20 C19         5.6117    2.3255   -0.5801 C.ar      1 <0>        -0.0617
     21 C20        -5.2538    2.8031   -0.2646 C.ar      1 <0>        -0.0617
     22 H1          0.3385   -1.4885    2.4439 H         1 <0>         0.0427
     23 H2         -0.3282   -0.0938    1.5934 H         1 <0>         0.0427
     24 H3         -1.3999   -3.0104    1.4153 H         1 <0>         0.0427
     25 H4         -1.6420   -2.9463   -0.3356 H         1 <0>         0.0427
     26 H5          2.5440   -1.0642    1.3292 H         1 <0>         0.0281
     27 H6          1.9305    0.3454    2.1309 H         1 <0>         0.0281
     28 H7         -2.2516   -0.6626    1.6045 H         1 <0>         0.0281
     29 H8         -3.3496   -1.6904    0.7471 H         1 <0>         0.0281
     30 H9          1.9826   -2.5039    0.0088 H         1 <0>         0.0424
     31 H10         1.0674   -3.4859    1.1600 H         1 <0>         0.0424
     32 H11         1.5632   -0.1279   -0.8868 H         1 <0>         0.0314
     33 H12         1.0088    1.2691    0.0061 H         1 <0>         0.0314
     34 H13        -1.3531    0.1424   -0.7073 H         1 <0>         0.0314
     35 H14        -2.5260   -0.9066   -1.4660 H         1 <0>         0.0314
     36 H15        -0.1971   -4.4713   -0.7024 H         1 <0>         0.0242
     37 H16         0.4174   -3.2367   -1.8345 H         1 <0>         0.0242
     38 H17         1.4983   -4.4513   -1.1499 H         1 <0>         0.0242
     39 H18         2.5921    2.9399    0.8484 H         1 <0>         0.0620
     40 H19        -4.9187   -0.3797   -1.4017 H         1 <0>         0.0620
     41 H20         3.9377   -0.5399   -1.3053 H         1 <0>         0.0620
     42 H21        -2.0113    2.1564    0.5149 H         1 <0>         0.0620
     43 H22         4.8028    3.9945    0.5152 H         1 <0>         0.0618
     44 H23        -6.5986    1.4256   -1.2305 H         1 <0>         0.0618
     45 H24         6.1452    0.5237   -1.6333 H         1 <0>         0.0618
     46 H25        -3.6990    3.9556    0.6814 H         1 <0>         0.0618
     47 H26         6.5826    2.7904   -0.7244 H         1 <0>         0.0618
     48 H27        -5.9938    3.5946   -0.1896 H         1 <0>         0.0618
@<TRIPOS>BOND
     1    1    2 1
     2    1    3 1
     3    1    6 1
     4    2    4 1
     5    2   22 1
     6    2   23 1
     7    3    5 1
     8    3   24 1
     9    3   25 1
    10    4    7 1
    11    4   26 1
    12    4   27 1
    13    5    8 1
    14    5   28 1
    15    5   29 1
    16    6    9 1
    17    6   30 1
    18    6   31 1
    19    7   10 1
    20    7   32 1
    21    7   33 1
    22    8   11 1
    23    8   34 1
    24    8   35 1
    25    9   36 1
    26    9   37 1
    27    9   38 1
    28   10   12 ar
    29   10   14 ar
    30   11   13 ar
    31   11   15 ar
    32   12   16 ar
    33   12   39 1
    34   13   17 ar
    35   13   40 1
    36   14   18 ar
    37   14   41 1
    38   15   19 ar
    39   15   42 1
    40   16   20 ar
    41   16   43 1
    42   17   21 ar
    43   17   44 1
    44   18   20 ar
    45   18   45 1
    46   19   21 ar
    47   19   46 1
    48   20   47 1
    49   21   48 1
