@<TRIPOS>MOLECULE
DB01158
   30    30     0     0     0
SMALL
USER_CHARGES

@<TRIPOS>ATOM
      1 Br1         0.8829   -2.4389    1.6789 Br        1 <0>        -0.0498
      2 N1         -1.1992    0.3566    0.2526 N.4       1 <0>         0.2421
      3 C1         -0.0630    0.5824    1.2395 C.3       1 <0>        -0.0036
      4 C2         -1.2345   -1.1095   -0.1541 C.3       1 <0>        -0.0332
      5 C3         -0.9784    1.2202   -0.9812 C.3       1 <0>        -0.0412
      6 C4         -2.5211    0.7337    0.9058 C.3       1 <0>        -0.0412
      7 C5          1.2832    0.2344    0.6759 C.ar      1 <0>         0.0111
      8 C6         -2.3657   -1.3274   -1.1349 C.3       1 <0>        -0.0244
      9 C7          1.8180   -1.0451    0.7956 C.ar      1 <0>         0.0261
     10 C8          1.9944    1.2368    0.0216 C.ar      1 <0>        -0.0525
     11 C9          3.0738   -1.3247    0.2568 C.ar      1 <0>        -0.0473
     12 C10         3.2503    0.9570   -0.5171 C.ar      1 <0>        -0.0613
     13 C11         3.7900   -0.3237   -0.3995 C.ar      1 <0>        -0.0607
     14 H1         -0.2982    0.0336    2.1583 H         1 <0>         0.0868
     15 H2         -0.0881    1.6438    1.5230 H         1 <0>         0.0868
     16 H3         -0.3063   -1.3792   -0.6593 H         1 <0>         0.0812
     17 H4         -1.4524   -1.7002    0.7362 H         1 <0>         0.0812
     18 H5         -1.9075    1.2780   -1.5558 H         1 <0>         0.0778
     19 H6         -0.7255    2.2341   -0.6555 H         1 <0>         0.0778
     20 H7         -0.1872    0.7913   -1.6019 H         1 <0>         0.0778
     21 H8         -2.4092    1.7317    1.3422 H         1 <0>         0.0778
     22 H9         -3.3173    0.7697    0.1586 H         1 <0>         0.0778
     23 H10        -2.7460    0.0075    1.6925 H         1 <0>         0.0778
     24 H11        -2.3699   -2.3851   -1.4267 H         1 <0>         0.0281
     25 H12        -3.3556   -1.1368   -0.7132 H         1 <0>         0.0281
     26 H13        -2.2559   -0.7645   -2.0652 H         1 <0>         0.0281
     27 H14         1.6001    2.2450   -0.0680 H         1 <0>         0.0622
     28 H15         3.5108   -2.3167    0.3384 H         1 <0>         0.0629
     29 H16         3.8096    1.7372   -1.0251 H         1 <0>         0.0618
     30 H17         4.7682   -0.5411   -0.8183 H         1 <0>         0.0618
@<TRIPOS>BOND
     1    1    9 1
     2    2    3 1
     3    2    4 1
     4    2    5 1
     5    2    6 1
     6    3    7 1
     7    3   14 1
     8    3   15 1
     9    4    8 1
    10    4   16 1
    11    4   17 1
    12    5   18 1
    13    5   19 1
    14    5   20 1
    15    6   21 1
    16    6   22 1
    17    6   23 1
    18    7    9 ar
    19    7   10 ar
    20    8   24 1
    21    8   25 1
    22    8   26 1
    23    9   11 ar
    24   10   12 ar
    25   10   27 1
    26   11   13 ar
    27   11   28 1
    28   12   13 ar
    29   12   29 1
    30   13   30 1
