@<TRIPOS>MOLECULE
DB01018
   24    24     0     0     0
SMALL
USER_CHARGES

@<TRIPOS>ATOM
      1 Cl1        -0.5062    2.3567   -0.5262 Cl        1 <0>        -0.0832
      2 Cl2        -1.8236   -2.9219   -0.1599 Cl        1 <0>        -0.0832
      3 O1          0.4945   -0.5661    1.8070 O.2       1 <0>        -0.2538
      4 N1          2.2685   -1.1231    0.4266 N.2       1 <0>        -0.0046
      5 N2          4.5028   -0.3735   -0.0640 N.pl3     1 <0>        -0.2907
      6 N3          2.8205    1.1337    0.2599 N.pl3     1 <0>        -0.2907
      7 C1         -1.2917   -0.2495   -0.3209 C.ar      1 <0>        -0.0005
      8 C2          0.1437   -0.6257   -0.5790 C.3       1 <0>         0.0702
      9 C3         -1.6575    1.0921   -0.2849 C.ar      1 <0>         0.0460
     10 C4         -2.2412   -1.2467   -0.1213 C.ar      1 <0>         0.0460
     11 C5         -2.9870    1.4404   -0.0465 C.ar      1 <0>        -0.0430
     12 C6         -3.5706   -0.8981    0.1173 C.ar      1 <0>        -0.0430
     13 C7          0.9701   -0.7429    0.6880 C.2       1 <0>         0.3141
     14 C8         -3.9435    0.4455    0.1545 C.ar      1 <0>        -0.0590
     15 C9          3.1652   -0.1964    0.2115 C.2       1 <0>         0.3745
     16 H1          0.6213    0.0897   -1.2570 H         1 <0>         0.0424
     17 H2          0.2130   -1.5747   -1.1229 H         1 <0>         0.0424
     18 H3         -3.2942    2.4828   -0.0138 H         1 <0>         0.0632
     19 H4         -4.3284   -1.6611    0.2760 H         1 <0>         0.0632
     20 H5         -4.9786    0.7169    0.3402 H         1 <0>         0.0618
     21 H6          5.1220    0.4153   -0.2148 H         1 <0>         0.2545
     22 H7          4.9056   -1.3021   -0.1270 H         1 <0>         0.2545
     23 H8          3.5143    1.8548    0.0928 H         1 <0>         0.2545
     24 H9          1.8808    1.4541    0.4645 H         1 <0>         0.2545
@<TRIPOS>BOND
     1    1    9 1
     2    2   10 1
     3    3   13 2
     4    4   13 1
     5    4   15 2
     6    5   15 1
     7    5   21 1
     8    5   22 1
     9    6   15 1
    10    6   23 1
    11    6   24 1
    12    7    8 1
    13    7    9 ar
    14    7   10 ar
    15    8   13 1
    16    8   16 1
    17    8   17 1
    18    9   11 ar
    19   10   12 ar
    20   11   14 ar
    21   11   18 1
    22   12   14 ar
    23   12   19 1
    24   14   20 1
