@<TRIPOS>MOLECULE
DB01291
   37    37     0     0     0
SMALL
USER_CHARGES

@<TRIPOS>ATOM
      1 O1         -0.0562   -1.1255   -2.2529 O.3       1 <0>        -0.3844
      2 O2         -5.3897   -0.1306    0.6750 O.3       1 <0>        -0.5049
      3 O3         -3.4507    2.6446    0.7012 O.3       1 <0>        -0.3888
      4 N1          2.2089   -0.6668   -0.5375 N.3       1 <0>        -0.3085
      5 N2         -1.9977    0.2518   -0.6254 N.ar      1 <0>        -0.2479
      6 C1          3.1564    0.2156    0.1515 C.3       1 <0>         0.0108
      7 C2          0.8465   -0.3747   -0.1252 C.3       1 <0>         0.0280
      8 C3         -0.1491   -1.2971   -0.8393 C.3       1 <0>         0.1093
      9 C4          4.5733   -0.1232   -0.3234 C.3       1 <0>        -0.0473
     10 C5          2.8165    1.6674   -0.2017 C.3       1 <0>        -0.0473
     11 C6          3.0427    0.0011    1.6655 C.3       1 <0>        -0.0473
     12 C7         -1.5735   -1.0056   -0.4202 C.ar      1 <0>         0.0715
     13 C8         -2.3196   -2.0223    0.1289 C.ar      1 <0>        -0.0343
     14 C9         -3.2709    0.5070   -0.2494 C.ar      1 <0>         0.1081
     15 C10        -3.6247   -1.7213    0.5029 C.ar      1 <0>        -0.0165
     16 C11        -4.1170   -0.4349    0.3134 C.ar      1 <0>         0.1403
     17 C12        -3.7511    1.9034   -0.4742 C.3       1 <0>         0.0897
     18 H1          2.4285   -1.6414   -0.3325 H         1 <0>         0.1225
     19 H2          0.6909   -0.5095    0.9497 H         1 <0>         0.0453
     20 H3          0.5729    0.6505   -0.3916 H         1 <0>         0.0453
     21 H4          0.0995   -2.3442   -0.6250 H         1 <0>         0.0672
     22 H5          4.8360   -1.1616   -0.0894 H         1 <0>         0.0247
     23 H6          5.3175    0.5214    0.1583 H         1 <0>         0.0247
     24 H7          4.6732    0.0104   -1.4070 H         1 <0>         0.0247
     25 H8          1.9258    2.0477    0.3095 H         1 <0>         0.0247
     26 H9          2.6852    1.8038   -1.2819 H         1 <0>         0.0247
     27 H10         3.6366    2.3304    0.1017 H         1 <0>         0.0247
     28 H11         2.1362    0.4321    2.1030 H         1 <0>         0.0247
     29 H12         3.8814    0.4877    2.1789 H         1 <0>         0.0247
     30 H13         3.0846   -1.0623    1.9295 H         1 <0>         0.0247
     31 H14        -1.9270   -3.0223    0.2727 H         1 <0>         0.0637
     32 H15         0.8714   -1.2768   -2.5031 H         1 <0>         0.2104
     33 H16        -4.2467   -2.4973    0.9404 H         1 <0>         0.0655
     34 H17        -3.2237    2.3585   -1.3192 H         1 <0>         0.0624
     35 H18        -4.8255    1.9515   -0.6767 H         1 <0>         0.0624
     36 H19        -5.8112   -0.9244    1.0467 H         1 <0>         0.2922
     37 H20        -3.7497    3.5569    0.5467 H         1 <0>         0.2099
@<TRIPOS>BOND
     1    1    8 1
     2    1   32 1
     3    2   16 1
     4    2   36 1
     5    3   17 1
     6    3   37 1
     7    4    6 1
     8    4    7 1
     9    4   18 1
    10    5   12 ar
    11    5   14 ar
    12    6    9 1
    13    6   10 1
    14    6   11 1
    15    7    8 1
    16    7   19 1
    17    7   20 1
    18    8   12 1
    19    8   21 1
    20    9   22 1
    21    9   23 1
    22    9   24 1
    23   10   25 1
    24   10   26 1
    25   10   27 1
    26   11   28 1
    27   11   29 1
    28   11   30 1
    29   12   13 ar
    30   13   15 ar
    31   13   31 1
    32   14   16 ar
    33   14   17 1
    34   15   16 ar
    35   15   33 1
    36   17   34 1
    37   17   35 1
