@<TRIPOS>MOLECULE
DB01093
   10     9     0     0     0
SMALL
USER_CHARGES

@<TRIPOS>ATOM
      1 S1          0.0001   -0.8042    0.6812 S.o       1 <0>         0.0159
      2 O1          0.0003   -2.0986   -0.0766 O.2       1 <0>        -0.2577
      3 C1         -1.3420    0.2132    0.0201 C.3       1 <0>         0.0115
      4 C2          1.3419    0.2134    0.0201 C.3       1 <0>         0.0115
      5 H1         -2.2942   -0.2540    0.2817 H         1 <0>         0.0365
      6 H2         -1.2581    0.2810   -1.0672 H         1 <0>         0.0365
      7 H3         -1.2952    1.2109    0.4630 H         1 <0>         0.0365
      8 H4          1.2950    1.2110    0.4629 H         1 <0>         0.0365
      9 H5          1.2581    0.2811   -1.0671 H         1 <0>         0.0365
     10 H6          2.2943   -0.2537    0.2818 H         1 <0>         0.0365
@<TRIPOS>BOND
     1    1    2 2
     2    1    3 1
     3    1    4 1
     4    3    5 1
     5    3    6 1
     6    3    7 1
     7    4    8 1
     8    4    9 1
     9    4   10 1
