@<TRIPOS>MOLECULE
DB01206
   31    31     0     0     0
SMALL
USER_CHARGES

@<TRIPOS>ATOM
      1 Cl1         6.2185    0.4805    0.4459 Cl        1 <0>        -0.1237
      2 O1          1.5341    1.5927    0.7461 O.2       1 <0>        -0.2508
      3 O2          2.9836   -2.0365   -1.6832 O.2       1 <0>        -0.1256
      4 N1          0.0679   -0.0932    0.2041 N.am      1 <0>        -0.2950
      5 N2          2.3281   -0.2059   -0.4810 N.am      1 <0>        -0.1401
      6 N3          2.0136   -1.5142   -1.1236 N.2       1 <0>         0.0527
      7 C1         -1.0675    0.5161    0.8599 C.3       1 <0>         0.0246
      8 C2         -1.8032    1.4708   -0.0863 C.3       1 <0>        -0.0345
      9 C3         -2.0155   -0.5483    1.4226 C.3       1 <0>        -0.0345
     10 C4         -2.5735    0.7314   -1.1804 C.3       1 <0>        -0.0514
     11 C5         -2.7854   -1.2845    0.3259 C.3       1 <0>        -0.0514
     12 C6         -3.5179   -0.3143   -0.5957 C.3       1 <0>        -0.0529
     13 C7          1.3252    0.5074    0.1943 C.2       1 <0>         0.3244
     14 C8          3.6914    0.3017   -0.5698 C.3       1 <0>         0.0557
     15 C9          4.5635   -0.1628    0.5844 C.3       1 <0>         0.0405
     16 H1         -0.6846    1.1031    1.7041 H         1 <0>         0.0499
     17 H2         -1.1002    2.1731   -0.5497 H         1 <0>         0.0283
     18 H3         -2.5125    2.0723    0.4967 H         1 <0>         0.0283
     19 H4         -2.7361   -0.0648    2.0946 H         1 <0>         0.0283
     20 H5         -1.4574   -1.2752    2.0250 H         1 <0>         0.0283
     21 H6         -1.8682    0.2456   -1.8656 H         1 <0>         0.0266
     22 H7         -3.1467    1.4518   -1.7750 H         1 <0>         0.0266
     23 H8         -3.5091   -1.9675    0.7855 H         1 <0>         0.0266
     24 H9         -2.1007   -1.9055   -0.2636 H         1 <0>         0.0266
     25 H10        -4.3152    0.1888   -0.0348 H         1 <0>         0.0265
     26 H11        -4.0012   -0.8700   -1.4072 H         1 <0>         0.0265
     27 H12        -0.0957   -0.9371   -0.3323 H         1 <0>         0.1506
     28 H13         4.1292    0.0309   -1.5377 H         1 <0>         0.0498
     29 H14         3.6436    1.3981   -0.5587 H         1 <0>         0.0498
     30 H15         4.6353   -1.2544    0.6110 H         1 <0>         0.0446
     31 H16         4.1568    0.1700    1.5446 H         1 <0>         0.0446
@<TRIPOS>BOND
     1    1   15 1
     2    2   13 2
     3    3    6 2
     4    4    7 1
     5    4   13 am
     6    4   27 1
     7    5    6 1
     8    5   13 am
     9    5   14 1
    10    7    8 1
    11    7    9 1
    12    7   16 1
    13    8   10 1
    14    8   17 1
    15    8   18 1
    16    9   11 1
    17    9   19 1
    18    9   20 1
    19   10   12 1
    20   10   21 1
    21   10   22 1
    22   11   12 1
    23   11   23 1
    24   11   24 1
    25   12   25 1
    26   12   26 1
    27   14   15 1
    28   14   28 1
    29   14   29 1
    30   15   30 1
    31   15   31 1
