@<TRIPOS>MOLECULE
DB01325
   30    31     0     0     0
SMALL
USER_CHARGES

@<TRIPOS>ATOM
      1 Cl1        -3.3373    2.7205   -0.3876 Cl        1 <0>        -0.0815
      2 S1         -4.0855   -0.3923   -0.8291 S.o2      1 <0>         0.0574
      3 O1          0.4607   -2.7149    0.6165 O.2       1 <0>        -0.2701
      4 O2         -4.6624    0.7307   -1.5620 O.2       1 <0>        -0.1532
      5 O3         -3.8807   -1.6772   -1.4888 O.2       1 <0>        -0.1532
      6 N1          1.3734    1.2448    0.8883 N.pl3     1 <0>        -0.3252
      7 N2          2.0281   -1.0643    0.9391 N.am      1 <0>        -0.2931
      8 N3         -5.0529   -0.6532    0.5680 N.pl3     1 <0>        -0.2035
      9 C1          2.4703    0.3080    0.7469 C.3       1 <0>         0.0871
     10 C2          0.1004    0.8679    0.4851 C.ar      1 <0>         0.0422
     11 C3          3.1314    0.4817   -0.6166 C.3       1 <0>        -0.0208
     12 C4         -0.2380   -0.4822    0.3078 C.ar      1 <0>         0.0595
     13 C5          0.7670   -1.5270    0.6166 C.2       1 <0>         0.2473
     14 C6         -1.5249   -0.8547   -0.0976 C.ar      1 <0>        -0.0200
     15 C7         -2.4894    0.1255   -0.3228 C.ar      1 <0>         0.1241
     16 C8         -0.8899    1.8363    0.2726 C.ar      1 <0>        -0.0198
     17 C9         -2.1743    1.4689   -0.1339 C.ar      1 <0>         0.0690
     18 C10         4.2985   -0.4714   -0.7925 C.3       1 <0>        -0.0621
     19 H1          3.2031    0.5100    1.5364 H         1 <0>         0.0706
     20 H2          1.5834    2.2321    0.9789 H         1 <0>         0.1478
     21 H3          3.4876    1.5136   -0.7248 H         1 <0>         0.0296
     22 H4          2.4111    0.3124   -1.4268 H         1 <0>         0.0296
     23 H5          2.7240   -1.7512    1.2135 H         1 <0>         0.1508
     24 H6         -1.7670   -1.9074   -0.2137 H         1 <0>         0.0646
     25 H7         -0.6471    2.8876    0.4192 H         1 <0>         0.0651
     26 H8          5.0265   -0.3616    0.0178 H         1 <0>         0.0231
     27 H9          3.9719   -1.5153   -0.8272 H         1 <0>         0.0231
     28 H10         4.8135   -0.2600   -1.7355 H         1 <0>         0.0231
     29 H11        -5.2918   -1.6246    0.8020 H         1 <0>         0.1442
     30 H12        -5.8093    0.0178    0.7503 H         1 <0>         0.1442
@<TRIPOS>BOND
     1    1   17 1
     2    2    4 2
     3    2    5 2
     4    2    8 1
     5    2   15 1
     6    3   13 2
     7    6    9 1
     8    6   10 1
     9    6   20 1
    10    7    9 1
    11    7   13 am
    12    7   23 1
    13    8   29 1
    14    8   30 1
    15    9   11 1
    16    9   19 1
    17   10   12 ar
    18   10   16 ar
    19   11   18 1
    20   11   21 1
    21   11   22 1
    22   12   13 1
    23   12   14 ar
    24   14   15 ar
    25   14   24 1
    26   15   17 ar
    27   16   17 ar
    28   16   25 1
    29   18   26 1
    30   18   27 1
    31   18   28 1
