@<TRIPOS>MOLECULE
DB01598
   37    38     0     0     0
SMALL
USER_CHARGES

@<TRIPOS>ATOM
      1 S1         -1.9303    0.3299    1.2176 S.3       1 <0>        -0.1256
      2 O1          4.8789    1.7686    0.3473 O.3       1 <0>        -0.3912
      3 O2          2.5169   -1.8039   -1.4212 O.2       1 <0>        -0.2748
      4 O3          0.4882   -3.4266    0.6892 O.3       1 <0>        -0.4762
      5 O4         -1.4064   -2.4885   -0.1832 O.2       1 <0>        -0.2437
      6 N1          1.6931   -1.0129    0.6441 N.am      1 <0>        -0.2603
      7 N2         -4.6132    0.0765   -0.2452 N.2       1 <0>        -0.2761
      8 N3         -6.9481   -0.5568   -0.0294 N.pl3     1 <0>        -0.3494
      9 C1          2.1010    0.3391    1.0853 C.3       1 <0>         0.0493
     10 C2          2.9961    0.3805   -0.1828 C.3       1 <0>         0.0809
     11 C3          0.7815    1.1052    1.2314 C.3       1 <0>         0.0002
     12 C4          2.4400   -1.0263   -0.4967 C.2       1 <0>         0.2276
     13 C5          4.4919    0.4348    0.0162 C.3       1 <0>         0.0653
     14 C6          0.3333   -1.1311    0.7008 C.2       1 <0>         0.1308
     15 C7         -0.2513    0.0216    1.0498 C.2       1 <0>         0.0157
     16 C8          5.2325    0.0007   -1.2436 C.3       1 <0>        -0.0382
     17 C9         -0.3102   -2.3918    0.3454 C.2       1 <0>         0.3521
     18 C10        -2.3279    0.8635   -0.4634 C.3       1 <0>         0.0176
     19 C11        -3.7951    1.2476   -0.5728 C.3       1 <0>         0.0504
     20 C12        -5.8828    0.2667   -0.2697 C.2       1 <0>         0.0732
     21 H1          2.6580    0.2869    2.0304 H         1 <0>         0.0516
     22 H2          2.6545    1.1156   -0.9251 H         1 <0>         0.0438
     23 H3          0.6836    1.8856    0.4698 H         1 <0>         0.0337
     24 H4          0.7065    1.5592    2.2253 H         1 <0>         0.0337
     25 H5          4.8076   -0.2126    0.8428 H         1 <0>         0.0598
     26 H6          6.3108    0.1509   -1.1213 H         1 <0>         0.0255
     27 H7          5.0582   -1.0521   -1.4808 H         1 <0>         0.0255
     28 H8          4.9252    0.6045   -2.1049 H         1 <0>         0.0255
     29 H9          4.4313    2.0045    1.1778 H         1 <0>         0.2098
     30 H10        -2.0994    0.0530   -1.1641 H         1 <0>         0.0398
     31 H11        -1.7059    1.7249   -0.7290 H         1 <0>         0.0398
     32 H12         0.0858   -4.2925    0.4638 H         1 <0>         0.2954
     33 H13        -4.0015    1.5721   -1.6000 H         1 <0>         0.0517
     34 H14        -4.0241    2.0844    0.0993 H         1 <0>         0.0517
     35 H15        -6.2623    1.2717   -0.5300 H         1 <0>         0.0990
     36 H16        -7.9041   -0.2244   -0.0991 H         1 <0>         0.1431
     37 H17        -6.8122   -1.5288    0.2262 H         1 <0>         0.1431
@<TRIPOS>BOND
     1    1   15 1
     2    1   18 1
     3    2   13 1
     4    2   29 1
     5    3   12 2
     6    4   17 1
     7    4   32 1
     8    5   17 2
     9    6    9 1
    10    6   12 am
    11    6   14 1
    12    7   19 1
    13    7   20 2
    14    8   20 1
    15    8   36 1
    16    8   37 1
    17    9   10 1
    18    9   11 1
    19    9   21 1
    20   10   12 1
    21   10   13 1
    22   10   22 1
    23   11   15 1
    24   11   23 1
    25   11   24 1
    26   13   16 1
    27   13   25 1
    28   14   15 2
    29   14   17 1
    30   16   26 1
    31   16   27 1
    32   16   28 1
    33   18   19 1
    34   18   30 1
    35   18   31 1
    36   19   33 1
    37   19   34 1
    38   20   35 1
