@<TRIPOS>MOLECULE
DB01069
   40    42     0     0     0
SMALL
USER_CHARGES

@<TRIPOS>ATOM
      1 S1          3.3309   -0.7838    0.9300 S.3       1 <0>        -0.0857
      2 N1          0.5763   -0.0938   -0.3354 N.pl3     1 <0>        -0.2968
      3 N2         -3.0460    0.2990    0.5087 N.3       1 <0>        -0.3042
      4 C1         -1.6547   -0.1065    0.7171 C.3       1 <0>         0.0231
      5 C2         -0.8331    0.2764   -0.5181 C.3       1 <0>         0.0327
      6 C3          1.5316    0.9540   -0.3326 C.ar      1 <0>         0.0479
      7 C4          0.8817   -1.4754   -0.2423 C.ar      1 <0>         0.0479
      8 C5         -1.1335    0.5630    1.9888 C.3       1 <0>        -0.0480
      9 C6          2.8242    0.7568    0.1923 C.ar      1 <0>         0.0341
     10 C7          2.1100   -1.9133    0.2911 C.ar      1 <0>         0.0341
     11 C8         -3.5818   -0.3224   -0.7012 C.3       1 <0>        -0.0127
     12 C9         -3.1452    1.7550    0.4241 C.3       1 <0>        -0.0127
     13 C10         1.2503    2.2239   -0.8826 C.ar      1 <0>        -0.0393
     14 C11        -0.0057   -2.4702   -0.7080 C.ar      1 <0>        -0.0393
     15 C12         3.7702    1.7974    0.1860 C.ar      1 <0>        -0.0462
     16 C13         2.4110   -3.2844    0.3738 C.ar      1 <0>        -0.0462
     17 C14         2.1958    3.2530   -0.8908 C.ar      1 <0>        -0.0599
     18 C15         0.3004   -3.8316   -0.6278 C.ar      1 <0>        -0.0599
     19 C16         3.4560    3.0405   -0.3529 C.ar      1 <0>        -0.0606
     20 C17         1.5087   -4.2393   -0.0833 C.ar      1 <0>        -0.0606
     21 H1         -1.6475   -1.1857    0.9018 H         1 <0>         0.0475
     22 H2         -1.1838   -0.1737   -1.4519 H         1 <0>         0.0483
     23 H3         -0.9539    1.3395   -0.6781 H         1 <0>         0.0483
     24 H4         -0.8577    1.6132    1.8468 H         1 <0>         0.0245
     25 H5         -1.8573    0.4942    2.8093 H         1 <0>         0.0245
     26 H6         -0.2283    0.0505    2.3356 H         1 <0>         0.0245
     27 H7         -3.3845   -1.4001   -0.7226 H         1 <0>         0.0391
     28 H8         -3.2303    0.1272   -1.6358 H         1 <0>         0.0391
     29 H9         -4.6736   -0.2173   -0.6996 H         1 <0>         0.0391
     30 H10        -4.2107    2.0159    0.3642 H         1 <0>         0.0391
     31 H11        -2.6909    2.2104   -0.4605 H         1 <0>         0.0391
     32 H12        -2.8001    2.2767    1.3209 H         1 <0>         0.0391
     33 H13         0.3231    2.4631   -1.3921 H         1 <0>         0.0636
     34 H14        -0.9583   -2.2232   -1.1669 H         1 <0>         0.0636
     35 H15         4.7651    1.6491    0.6011 H         1 <0>         0.0629
     36 H16         3.3547   -3.6238    0.7963 H         1 <0>         0.0629
     37 H17         1.9483    4.2137   -1.3330 H         1 <0>         0.0618
     38 H18        -0.4071   -4.5687   -0.9964 H         1 <0>         0.0618
     39 H19         4.1947    3.8360   -0.3583 H         1 <0>         0.0618
     40 H20         1.7510   -5.2955   -0.0178 H         1 <0>         0.0618
@<TRIPOS>BOND
     1    1    9 1
     2    1   10 1
     3    2    5 1
     4    2    6 1
     5    2    7 1
     6    3    4 1
     7    3   11 1
     8    3   12 1
     9    4    5 1
    10    4    8 1
    11    4   21 1
    12    5   22 1
    13    5   23 1
    14    6    9 ar
    15    6   13 ar
    16    7   10 ar
    17    7   14 ar
    18    8   24 1
    19    8   25 1
    20    8   26 1
    21    9   15 ar
    22   10   16 ar
    23   11   27 1
    24   11   28 1
    25   11   29 1
    26   12   30 1
    27   12   31 1
    28   12   32 1
    29   13   17 ar
    30   13   33 1
    31   14   18 ar
    32   14   34 1
    33   15   19 ar
    34   15   35 1
    35   16   20 ar
    36   16   36 1
    37   17   19 ar
    38   17   37 1
    39   18   20 ar
    40   18   38 1
    41   19   39 1
    42   20   40 1
