@<TRIPOS>MOLECULE
DB01149
   65    68     0     0     0
SMALL
USER_CHARGES

@<TRIPOS>ATOM
      1 Cl1        -6.3941   -3.5470    0.8709 Cl        1 <0>        -0.0835
      2 O1          3.6539    0.5113   -2.5963 O.2       1 <0>        -0.2448
      3 O2          3.1076   -2.2545   -1.2437 O.3       1 <0>        -0.4902
      4 N1         -1.3092    2.1540   -0.3943 N.3       1 <0>        -0.2993
      5 N2         -3.7416    0.7834    0.2085 N.pl3     1 <0>        -0.3274
      6 N3          3.0287    1.9787   -0.8658 N.am      1 <0>        -0.2129
      7 N4          4.2301    0.2009   -0.3473 N.am      1 <0>        -0.2760
      8 N5          3.2336    2.0181    0.4882 N.2       1 <0>        -0.1537
      9 C1         -2.0193    2.4185    0.8629 C.3       1 <0>         0.0147
     10 C2         -1.4845    0.7485   -0.7808 C.3       1 <0>         0.0147
     11 C3         -3.5174    2.1398    0.7177 C.3       1 <0>         0.0250
     12 C4         -2.9646    0.4151   -0.9817 C.3       1 <0>         0.0250
     13 C5          0.1112    2.4751   -0.2586 C.3       1 <0>         0.0007
     14 C6          0.7856    2.6737   -1.6191 C.3       1 <0>        -0.0204
     15 C7          2.2761    2.9988   -1.5432 C.3       1 <0>         0.0479
     16 C8         -4.9828    0.1664    0.4003 C.ar      1 <0>         0.0311
     17 C9          3.6439    0.8456   -1.4202 C.2       1 <0>         0.3468
     18 C10         3.9392    0.9533    0.7349 C.cat     1 <0>         0.1340
     19 C11        -5.0605   -1.2208    0.5233 C.ar      1 <0>        -0.0223
     20 C12        -6.1420    0.9389    0.4724 C.ar      1 <0>        -0.0406
     21 C13         4.9946   -1.0306   -0.4072 C.3       1 <0>         0.0634
     22 C14         4.4111    0.5739    2.0980 C.3       1 <0>         0.0046
     23 C15        -6.2973   -1.8356    0.7184 C.ar      1 <0>         0.0427
     24 C16        -7.3788    0.3243    0.6674 C.ar      1 <0>        -0.0586
     25 C17         4.1054   -2.2480   -0.2310 C.3       1 <0>         0.1076
     26 C18        -7.4564   -1.0630    0.7905 C.ar      1 <0>        -0.0433
     27 C19         5.7708    1.1805    2.3778 C.3       1 <0>        -0.0584
     28 C20         1.9054   -2.8288   -0.9226 C.ar      1 <0>         0.1206
     29 C21         1.8554   -3.8709    0.0031 C.ar      1 <0>        -0.0199
     30 C22         0.7319   -2.3712   -1.5215 C.ar      1 <0>        -0.0199
     31 C23         0.6318   -4.4554    0.3300 C.ar      1 <0>        -0.0583
     32 C24        -0.4918   -2.9555   -1.1946 C.ar      1 <0>        -0.0583
     33 C25        -0.5419   -3.9976   -0.2689 C.ar      1 <0>        -0.0615
     34 H1         -1.6074    1.8052    1.6759 H         1 <0>         0.0442
     35 H2         -1.8978    3.4694    1.1526 H         1 <0>         0.0442
     36 H3         -0.9736    0.5290   -1.7235 H         1 <0>         0.0442
     37 H4         -1.0629    0.0813   -0.0170 H         1 <0>         0.0442
     38 H5         -3.9829    2.2666    1.7032 H         1 <0>         0.0476
     39 H6         -3.9627    2.8739    0.0340 H         1 <0>         0.0476
     40 H7         -3.3589    0.9575   -1.8508 H         1 <0>         0.0476
     41 H8         -3.0472   -0.6542   -1.2055 H         1 <0>         0.0476
     42 H9          0.6186    1.7045    0.3331 H         1 <0>         0.0427
     43 H10         0.2285    3.4182    0.2917 H         1 <0>         0.0427
     44 H11         0.2799    3.4828   -2.1614 H         1 <0>         0.0295
     45 H12         0.6765    1.7716   -2.2317 H         1 <0>         0.0295
     46 H13         2.4380    3.9520   -1.0280 H         1 <0>         0.0511
     47 H14         2.6713    3.0942   -2.5607 H         1 <0>         0.0511
     48 H15        -4.1579   -1.8271    0.4830 H         1 <0>         0.0651
     49 H16        -6.1209    2.0199    0.3670 H         1 <0>         0.0636
     50 H17         5.4689   -1.0716   -1.3944 H         1 <0>         0.0527
     51 H18         5.7791   -1.0228    0.3540 H         1 <0>         0.0527
     52 H19         4.4568   -0.5121    2.2095 H         1 <0>         0.0341
     53 H20         3.6881    0.9475    2.8319 H         1 <0>         0.0341
     54 H21        -8.2820    0.9253    0.7203 H         1 <0>         0.0619
     55 H22         4.7090   -3.1587   -0.3159 H         1 <0>         0.0714
     56 H23         3.6623   -2.2019    0.7716 H         1 <0>         0.0714
     57 H24        -8.4272   -1.5283    0.9415 H         1 <0>         0.0632
     58 H25         5.7337    2.2733    2.3122 H         1 <0>         0.0234
     59 H26         6.1087    0.9115    3.3832 H         1 <0>         0.0234
     60 H27         6.5218    0.8340    1.6610 H         1 <0>         0.0234
     61 H28         2.7479   -4.2767    0.4700 H         1 <0>         0.0654
     62 H29         0.7652   -1.5588   -2.2424 H         1 <0>         0.0654
     63 H30         0.5929   -5.2713    1.0457 H         1 <0>         0.0619
     64 H31        -1.4053   -2.6007   -1.6621 H         1 <0>         0.0619
     65 H32        -1.4946   -4.4534   -0.0157 H         1 <0>         0.0618
@<TRIPOS>BOND
     1    1   23 1
     2    2   17 2
     3    3   25 1
     4    3   28 1
     5    4    9 1
     6    4   10 1
     7    4   13 1
     8    5   11 1
     9    5   12 1
    10    5   16 1
    11    6    8 2
    12    6   15 1
    13    6   17 am
    14    7   17 am
    15    7   18 2
    16    7   21 1
    17    8   18 1
    18    9   11 1
    19    9   34 1
    20    9   35 1
    21   10   12 1
    22   10   36 1
    23   10   37 1
    24   11   38 1
    25   11   39 1
    26   12   40 1
    27   12   41 1
    28   13   14 1
    29   13   42 1
    30   13   43 1
    31   14   15 1
    32   14   44 1
    33   14   45 1
    34   15   46 1
    35   15   47 1
    36   16   19 ar
    37   16   20 ar
    38   18   22 1
    39   19   23 ar
    40   19   48 1
    41   20   24 ar
    42   20   49 1
    43   21   25 1
    44   21   50 1
    45   21   51 1
    46   22   27 1
    47   22   52 1
    48   22   53 1
    49   23   26 ar
    50   24   26 ar
    51   24   54 1
    52   25   55 1
    53   25   56 1
    54   26   57 1
    55   27   58 1
    56   27   59 1
    57   27   60 1
    58   28   29 ar
    59   28   30 ar
    60   29   31 ar
    61   29   61 1
    62   30   32 ar
    63   30   62 1
    64   31   33 ar
    65   31   63 1
    66   32   33 ar
    67   32   64 1
    68   33   65 1
