@<TRIPOS>MOLECULE
DB01170
   36    36     0     0     0
SMALL
USER_CHARGES

@<TRIPOS>ATOM
      1 N1         -0.5137    0.7139    0.1765 N.3       1 <0>        -0.2992
      2 N2          3.2008    0.8688   -0.0740 N.2       1 <0>        -0.1125
      3 N3          5.4914    0.6025   -0.2993 N.pl3     1 <0>        -0.2893
      4 N4          4.2180   -1.2863   -0.3749 N.pl3     1 <0>        -0.2893
      5 C1         -0.6643   -0.2100    1.3056 C.3       1 <0>        -0.0010
      6 C2         -1.5407    1.7609    0.1361 C.3       1 <0>        -0.0010
      7 C3         -1.0607   -1.6099    0.8242 C.3       1 <0>        -0.0402
      8 C4         -2.9921    1.2673    0.1237 C.3       1 <0>        -0.0402
      9 C5         -2.4424   -1.7488    0.1742 C.3       1 <0>        -0.0519
     10 C6         -3.3649    0.3402   -1.0329 C.3       1 <0>        -0.0519
     11 C7         -2.6085   -0.9873   -1.1429 C.3       1 <0>        -0.0530
     12 C8          0.8213    1.3122    0.1496 C.3       1 <0>         0.0331
     13 C9          1.8821    0.2342   -0.0219 C.3       1 <0>         0.1173
     14 C10         4.2193    0.0841   -0.2399 C.2       1 <0>         0.3765
     15 H1         -1.4148    0.1461    2.0225 H         1 <0>         0.0426
     16 H2          0.2354   -0.2920    1.9253 H         1 <0>         0.0426
     17 H3         -1.3942    2.3645   -0.7691 H         1 <0>         0.0426
     18 H4         -1.4185    2.4411    0.9897 H         1 <0>         0.0426
     19 H5         -1.0354   -2.2800    1.6933 H         1 <0>         0.0278
     20 H6         -0.2972   -1.9895    0.1329 H         1 <0>         0.0278
     21 H7         -3.6384    2.1528    0.0576 H         1 <0>         0.0278
     22 H8         -3.2544    0.8006    1.0788 H         1 <0>         0.0278
     23 H9         -3.2309   -1.4881    0.8887 H         1 <0>         0.0266
     24 H10        -2.5801   -2.8168   -0.0416 H         1 <0>         0.0266
     25 H11        -3.2557    0.8818   -1.9808 H         1 <0>         0.0266
     26 H12        -4.4352    0.1131   -0.9395 H         1 <0>         0.0266
     27 H13        -1.6400   -0.8373   -1.6335 H         1 <0>         0.0265
     28 H14        -3.1815   -1.6207   -1.8336 H         1 <0>         0.0265
     29 H15         1.0145    1.8945    1.0603 H         1 <0>         0.0459
     30 H16         0.9033    2.0097   -0.6944 H         1 <0>         0.0459
     31 H17         1.8812   -0.4885    0.7989 H         1 <0>         0.0706
     32 H18         1.6925   -0.3083   -0.9576 H         1 <0>         0.0706
     33 H19         5.6549    1.5999   -0.2157 H         1 <0>         0.2546
     34 H20         6.3015    0.0063   -0.4295 H         1 <0>         0.2546
     35 H21         5.0839   -1.7993   -0.5007 H         1 <0>         0.2546
     36 H22         3.3638   -1.8319   -0.3561 H         1 <0>         0.2546
@<TRIPOS>BOND
     1    1    5 1
     2    1    6 1
     3    1   12 1
     4    2   13 1
     5    2   14 2
     6    3   14 1
     7    3   33 1
     8    3   34 1
     9    4   14 1
    10    4   35 1
    11    4   36 1
    12    5    7 1
    13    5   15 1
    14    5   16 1
    15    6    8 1
    16    6   17 1
    17    6   18 1
    18    7    9 1
    19    7   19 1
    20    7   20 1
    21    8   10 1
    22    8   21 1
    23    8   22 1
    24    9   11 1
    25    9   23 1
    26    9   24 1
    27   10   11 1
    28   10   25 1
    29   10   26 1
    30   11   27 1
    31   11   28 1
    32   12   13 1
    33   12   29 1
    34   12   30 1
    35   13   31 1
    36   13   32 1
