@<TRIPOS>MOLECULE
DB01219
   33    35     0     0     0
SMALL
USER_CHARGES

@<TRIPOS>ATOM
      1 O1         -0.2883   -0.1932    0.0008 O.3       1 <0>        -0.4539
      2 O2          6.1827    2.7285   -0.0009 O.2       1 <0>        -0.2736
      3 O3          5.9624   -1.8555   -0.0003 O.2       1 <0>        -0.2504
      4 O4         -7.4529    0.7069   -0.0015 O.3       1 <0>        -0.5760
      5 O5         -6.4926    2.6809   -0.0000 O.2       1 <0>         0.0414
      6 N1          4.3272   -0.1711   -0.0001 N.am      1 <0>        -0.1678
      7 N2          6.4521    0.4194   -0.0004 N.am      1 <0>        -0.2373
      8 N3          3.2325   -0.9584   -0.0003 N.2       1 <0>        -0.1802
      9 N4         -6.4260    1.4279   -0.0007 N.pl3     1 <0>         0.0796
     10 C1          4.2521    1.2577    0.0002 C.3       1 <0>         0.1159
     11 C2         -1.3434   -1.0449    0.0008 C.2       1 <0>         0.1357
     12 C3         -2.6406   -0.4139    0.0005 C.ar      1 <0>         0.0177
     13 C4          0.8284   -0.9674    0.0004 C.2       1 <0>         0.1480
     14 C5          5.7319    1.5915    0.0002 C.2       1 <0>         0.2399
     15 C6          5.6186   -0.6815   -0.0003 C.2       1 <0>         0.3284
     16 C7         -0.9228   -2.3495    0.0006 C.2       1 <0>        -0.0152
     17 C8          0.4917   -2.3010    0.0002 C.2       1 <0>        -0.0143
     18 C9         -3.7962   -1.1949   -0.0002 C.ar      1 <0>        -0.0447
     19 C10        -2.7392    0.9776    0.0008 C.ar      1 <0>        -0.0447
     20 C11         2.0921   -0.3127   -0.0001 C.2       1 <0>         0.0881
     21 C12        -5.1492    0.8068   -0.0002 C.ar      1 <0>         0.2732
     22 C13        -5.0504   -0.5846   -0.0006 C.ar      1 <0>         0.0163
     23 C14        -3.9935    1.5878    0.0004 C.ar      1 <0>         0.0163
     24 H1          3.7972    1.6375    0.9187 H         1 <0>         0.0582
     25 H2          3.7972    1.6378   -0.9181 H         1 <0>         0.0582
     26 H3         -1.5391   -3.2373    0.0006 H         1 <0>         0.0656
     27 H4          7.4643    0.3695   -0.0008 H         1 <0>         0.1592
     28 H5          1.1746   -3.1387   -0.0001 H         1 <0>         0.0656
     29 H6         -3.7519   -2.2809   -0.0005 H         1 <0>         0.0627
     30 H7         -1.8623    1.6201    0.0013 H         1 <0>         0.0627
     31 H8          2.0049    0.7862   -0.0000 H         1 <0>         0.0883
     32 H9         -5.9292   -1.2246   -0.0011 H         1 <0>         0.0685
     33 H10        -4.0325    2.6742    0.0007 H         1 <0>         0.0685
@<TRIPOS>BOND
     1    1   11 1
     2    1   13 1
     3    2   14 2
     4    3   15 2
     5    4    9 1
     6    5    9 2
     7    6    8 1
     8    6   10 1
     9    6   15 am
    10    7   14 am
    11    7   15 am
    12    7   27 1
    13    8   20 2
    14    9   21 1
    15   10   14 1
    16   10   24 1
    17   10   25 1
    18   11   12 1
    19   11   16 2
    20   12   18 ar
    21   12   19 ar
    22   13   17 2
    23   13   20 1
    24   16   17 1
    25   16   26 1
    26   17   28 1
    27   18   22 ar
    28   18   29 1
    29   19   23 ar
    30   19   30 1
    31   20   31 1
    32   21   22 ar
    33   21   23 ar
    34   22   32 1
    35   23   33 1
