@<TRIPOS>MOLECULE
DB01123
   27    29     0     0     0
SMALL
USER_CHARGES

@<TRIPOS>ATOM
      1 N1          0.0000   -1.1785    0.0000 N.ar      1 <0>        -0.2466
      2 N2          4.8028   -1.2789    0.0004 N.pl3     1 <0>        -0.3579
      3 N3         -4.8029   -1.2788    0.0005 N.pl3     1 <0>        -0.3579
      4 C1          1.2147    0.8985   -0.0001 C.ar      1 <0>         0.0011
      5 C2         -1.2147    0.8985   -0.0001 C.ar      1 <0>         0.0011
      6 C3          1.1672   -0.5058   -0.0001 C.ar      1 <0>         0.0734
      7 C4         -1.1671   -0.5059   -0.0000 C.ar      1 <0>         0.0734
      8 C5         -0.0000    1.5916   -0.0002 C.ar      1 <0>        -0.0434
      9 C6          2.4500    1.5695   -0.0000 C.ar      1 <0>        -0.0508
     10 C7         -2.4500    1.5694    0.0000 C.ar      1 <0>        -0.0508
     11 C8          2.3732   -1.2016   -0.0001 C.ar      1 <0>        -0.0150
     12 C9         -2.3731   -1.2018    0.0001 C.ar      1 <0>        -0.0150
     13 C10         3.6026   -0.5380    0.0001 C.ar      1 <0>         0.0266
     14 C11        -3.6025   -0.5382    0.0000 C.ar      1 <0>         0.0266
     15 C12         3.6415    0.8504    0.0000 C.ar      1 <0>        -0.0404
     16 C13        -3.6416    0.8502    0.0001 C.ar      1 <0>        -0.0404
     17 H1         -0.0000    2.6809   -0.0003 H         1 <0>         0.0631
     18 H2          2.4898    2.6566   -0.0001 H         1 <0>         0.0625
     19 H3         -2.4899    2.6564    0.0002 H         1 <0>         0.0625
     20 H4          2.3552   -2.2911    0.0000 H         1 <0>         0.0657
     21 H5         -2.3550   -2.2912    0.0003 H         1 <0>         0.0657
     22 H6          4.5884    1.3833    0.0002 H         1 <0>         0.0636
     23 H7         -4.5885    1.3830    0.0003 H         1 <0>         0.0636
     24 H8          4.7740   -2.2897   -0.0002 H         1 <0>         0.1423
     25 H9          5.6934   -0.7997   -0.0001 H         1 <0>         0.1423
     26 H10        -4.7743   -2.2897   -0.0005 H         1 <0>         0.1423
     27 H11        -5.6933   -0.7993   -0.0003 H         1 <0>         0.1423
@<TRIPOS>BOND
     1    1    6 ar
     2    1    7 ar
     3    2   13 1
     4    2   24 1
     5    2   25 1
     6    3   14 1
     7    3   26 1
     8    3   27 1
     9    4    6 ar
    10    4    8 ar
    11    4    9 ar
    12    5    7 ar
    13    5    8 ar
    14    5   10 ar
    15    6   11 ar
    16    7   12 ar
    17    8   17 1
    18    9   15 ar
    19    9   18 1
    20   10   16 ar
    21   10   19 1
    22   11   13 ar
    23   11   20 1
    24   12   14 ar
    25   12   21 1
    26   13   15 ar
    27   14   16 ar
    28   15   22 1
    29   16   23 1
