@<TRIPOS>MOLECULE
DB01237
   40    41     0     0     0
SMALL
USER_CHARGES

@<TRIPOS>ATOM
      1 Br1        -6.1683    3.2333   -0.5709 Br        1 <0>        -0.0503
      2 O1          0.1953    0.8326   -0.0892 O.3       1 <0>        -0.3661
      3 N1          3.8510    0.3660   -0.0374 N.3       1 <0>        -0.3062
      4 C1         -0.9162    0.1774    0.5064 C.3       1 <0>         0.1087
      5 C2         -2.2062    0.9295    0.2422 C.ar      1 <0>        -0.0144
      6 C3         -0.9734   -1.2689    0.0602 C.ar      1 <0>        -0.0145
      7 C4          1.4220    0.2122    0.2727 C.3       1 <0>         0.0616
      8 C5          2.5639    0.9604   -0.3962 C.3       1 <0>         0.0218
      9 C6         -3.2268    0.8612    1.1722 C.ar      1 <0>        -0.0547
     10 C7         -2.3301    1.6639   -0.9228 C.ar      1 <0>        -0.0547
     11 C8         -1.5119   -2.2165    0.9123 C.ar      1 <0>        -0.0558
     12 C9         -0.4865   -1.6090   -1.1892 C.ar      1 <0>        -0.0558
     13 C10         4.9448    1.0784   -0.6969 C.3       1 <0>        -0.0130
     14 C11         4.0335    0.3798    1.4135 C.3       1 <0>        -0.0130
     15 C12        -4.4140    1.5519    0.9286 C.ar      1 <0>        -0.0474
     16 C13        -3.5172    2.3547   -1.1663 C.ar      1 <0>        -0.0474
     17 C14        -1.5647   -3.5485    0.5014 C.ar      1 <0>        -0.0614
     18 C15        -0.5395   -2.9410   -1.6000 C.ar      1 <0>        -0.0614
     19 C16        -4.5592    2.2988   -0.2406 C.ar      1 <0>         0.0179
     20 C17        -1.0787   -3.9107   -0.7546 C.ar      1 <0>        -0.0617
     21 H1         -0.7437    0.2068    1.5927 H         1 <0>         0.0697
     22 H2          1.4949    0.2861    1.3628 H         1 <0>         0.0573
     23 H3          1.4940   -0.8436    0.0020 H         1 <0>         0.0573
     24 H4          2.4177    0.9151   -1.4833 H         1 <0>         0.0449
     25 H5          2.5169    2.0244   -0.1270 H         1 <0>         0.0449
     26 H6         -3.1244    0.2873    2.0882 H         1 <0>         0.0622
     27 H7         -1.5360    1.7126   -1.6615 H         1 <0>         0.0622
     28 H8         -1.8885   -1.9482    1.8947 H         1 <0>         0.0621
     29 H9         -0.0899   -0.8718   -1.8813 H         1 <0>         0.0621
     30 H10         5.9054    0.5994   -0.4772 H         1 <0>         0.0391
     31 H11         5.0029    2.1278   -0.3853 H         1 <0>         0.0391
     32 H12         4.8232    1.0480   -1.7855 H         1 <0>         0.0391
     33 H13         3.4033   -0.3631    1.9120 H         1 <0>         0.0391
     34 H14         3.8499    1.3677    1.8516 H         1 <0>         0.0391
     35 H15         5.0601    0.0910    1.6708 H         1 <0>         0.0391
     36 H16        -5.2158    1.4986    1.6605 H         1 <0>         0.0629
     37 H17        -3.6152    2.9298   -2.0835 H         1 <0>         0.0629
     38 H18        -1.9837   -4.3038    1.1600 H         1 <0>         0.0618
     39 H19        -0.1676   -3.2222   -2.5810 H         1 <0>         0.0618
     40 H20        -1.1214   -4.9476   -1.0752 H         1 <0>         0.0618
@<TRIPOS>BOND
     1    1   19 1
     2    2    4 1
     3    2    7 1
     4    3    8 1
     5    3   13 1
     6    3   14 1
     7    4    5 1
     8    4    6 1
     9    4   21 1
    10    5    9 ar
    11    5   10 ar
    12    6   11 ar
    13    6   12 ar
    14    7    8 1
    15    7   22 1
    16    7   23 1
    17    8   24 1
    18    8   25 1
    19    9   15 ar
    20    9   26 1
    21   10   16 ar
    22   10   27 1
    23   11   17 ar
    24   11   28 1
    25   12   18 ar
    26   12   29 1
    27   13   30 1
    28   13   31 1
    29   13   32 1
    30   14   33 1
    31   14   34 1
    32   14   35 1
    33   15   19 ar
    34   15   36 1
    35   16   19 ar
    36   16   37 1
    37   17   20 ar
    38   17   38 1
    39   18   20 ar
    40   18   39 1
    41   20   40 1
