@<TRIPOS>MOLECULE
DB01656
   40    42     0     0     0
SMALL
USER_CHARGES

@<TRIPOS>ATOM
      1 Cl1         3.3476    2.1579    1.7647 Cl        1 <0>        -0.0800
      2 Cl2         4.7936   -1.5852   -1.9513 Cl        1 <0>        -0.0800
      3 F1         -5.1675   -2.7443    0.1842 F         1 <0>        -0.1663
      4 F2         -3.7912   -4.3003   -0.4591 F         1 <0>        -0.1663
      5 O1         -2.0794    0.3788   -1.1269 O.3       1 <0>        -0.4880
      6 O2         -3.1771   -2.1290   -0.6462 O.3       1 <0>        -0.4305
      7 O3          2.7432   -1.7965    1.4861 O.2       1 <0>        -0.2698
      8 N1          2.8268   -0.1274   -0.1609 N.am      1 <0>        -0.2790
      9 N2          6.8033    1.1946    0.0549 N.ar      1 <0>        -0.2602
     10 C1         -3.5456    2.1991   -0.6676 C.3       1 <0>        -0.0068
     11 C2         -4.6297    2.1767    0.3652 C.3       1 <0>        -0.0468
     12 C3         -3.9303    3.4630    0.0369 C.3       1 <0>        -0.0468
     13 C4         -2.2339    1.5664   -0.3524 C.3       1 <0>         0.0926
     14 C5         -1.3215   -0.6171   -0.5887 C.ar      1 <0>         0.1628
     15 C6         -1.8727   -1.8755   -0.3469 C.ar      1 <0>         0.1683
     16 C7          0.0159   -0.3702   -0.2788 C.ar      1 <0>        -0.0042
     17 C8          0.8023   -1.3816    0.2728 C.ar      1 <0>         0.0407
     18 C9         -1.0865   -2.8868    0.2050 C.ar      1 <0>        -0.0154
     19 C10         0.2511   -2.6400    0.5147 C.ar      1 <0>        -0.0459
     20 C11         2.1965   -1.1242    0.5969 C.2       1 <0>         0.2484
     21 C12         4.1692    0.3192   -0.0882 C.ar      1 <0>         0.0736
     22 C13        -3.8550   -3.0916    0.1516 C.3       1 <0>         0.3894
     23 C14         4.4976    1.3569    0.7643 C.ar      1 <0>         0.0816
     24 C15         5.1335   -0.2888   -0.8705 C.ar      1 <0>         0.0816
     25 C16         5.8241    1.7564    0.7989 C.ar      1 <0>         0.0478
     26 C17         6.4316    0.1840   -0.7624 C.ar      1 <0>         0.0478
     27 H1         -3.8169    2.1230   -1.7133 H         1 <0>         0.0334
     28 H2         -5.6496    2.0549    0.0210 H         1 <0>         0.0269
     29 H3         -4.4295    1.7268    1.3298 H         1 <0>         0.0269
     30 H4         -3.2543    3.8719    0.7778 H         1 <0>         0.0269
     31 H5         -4.4820    4.2071   -0.5246 H         1 <0>         0.0269
     32 H6         -1.4294    2.2577   -0.6293 H         1 <0>         0.0699
     33 H7         -2.1450    1.3515    0.7206 H         1 <0>         0.0699
     34 H8          0.4146    0.6247   -0.4577 H         1 <0>         0.0663
     35 H9         -1.4672   -3.8882    0.3822 H         1 <0>         0.0655
     36 H10         0.8491   -3.4455    0.9334 H         1 <0>         0.0626
     37 H11         2.3661    0.1592   -1.0218 H         1 <0>         0.1552
     38 H12        -3.5023   -3.1583    1.1868 H         1 <0>         0.1520
     39 H13         6.1580    2.5642    1.4433 H         1 <0>         0.0845
     40 H14         7.2426   -0.2434   -1.3445 H         1 <0>         0.0845
@<TRIPOS>BOND
     1    1   23 1
     2    2   24 1
     3    3   22 1
     4    4   22 1
     5    5   13 1
     6    5   14 1
     7    6   15 1
     8    6   22 1
     9    7   20 2
    10    8   20 am
    11    8   21 1
    12    8   37 1
    13    9   25 ar
    14    9   26 ar
    15   10   11 1
    16   10   12 1
    17   10   13 1
    18   10   27 1
    19   11   12 1
    20   11   28 1
    21   11   29 1
    22   12   30 1
    23   12   31 1
    24   13   32 1
    25   13   33 1
    26   14   15 ar
    27   14   16 ar
    28   15   18 ar
    29   16   17 ar
    30   16   34 1
    31   17   19 ar
    32   17   20 1
    33   18   19 ar
    34   18   35 1
    35   19   36 1
    36   21   23 ar
    37   21   24 ar
    38   22   38 1
    39   23   25 ar
    40   24   26 ar
    41   25   39 1
    42   26   40 1
