@<TRIPOS>MOLECULE
DB01025
   36    38     0     0     0
SMALL
USER_CHARGES

@<TRIPOS>ATOM
      1 O1          0.9263    1.9696    0.0233 O.3       1 <0>        -0.4365
      2 O2          0.3828   -2.0795   -0.1082 O.2       1 <0>        -0.2863
      3 O3          5.3033   -2.4581    0.4503 O.3       1 <0>        -0.4770
      4 O4          6.5523   -0.9073   -0.6459 O.2       1 <0>        -0.2450
      5 N1          3.2071    1.7408   -0.0119 N.ar      1 <0>        -0.1966
      6 N2          5.5727    1.5941   -0.0452 N.pl3     1 <0>        -0.3424
      7 C1         -4.3758   -0.0018    0.0186 C.3       1 <0>        -0.0215
      8 C2         -2.9690    0.4940    0.0194 C.ar      1 <0>        -0.0439
      9 C3         -0.5966    0.0613   -0.0238 C.ar      1 <0>         0.0650
     10 C4         -1.9105   -0.4135   -0.0243 C.ar      1 <0>        -0.0439
     11 C5         -0.3365    1.4304    0.0201 C.ar      1 <0>         0.1412
     12 C6         -2.7148    1.8651    0.0635 C.ar      1 <0>        -0.0548
     13 C7          1.8793   -0.2641   -0.0643 C.ar      1 <0>         0.0851
     14 C8          0.5408   -0.8684   -0.0692 C.2       1 <0>         0.2018
     15 C9         -4.6967   -0.8642    1.2539 C.3       1 <0>        -0.0586
     16 C10        -4.7259   -0.7774   -1.2653 C.3       1 <0>        -0.0586
     17 C11        -1.4004    2.3337    0.0640 C.ar      1 <0>        -0.0183
     18 C12         2.0062    1.1174   -0.0187 C.ar      1 <0>         0.2331
     19 C13         3.0300   -1.0487   -0.1049 C.ar      1 <0>        -0.0285
     20 C14         4.2730   -0.4285   -0.0986 C.ar      1 <0>         0.0991
     21 C15         4.3074    0.9551   -0.0519 C.ar      1 <0>         0.1341
     22 C16         5.4783   -1.2454   -0.1409 C.2       1 <0>         0.3402
     23 H1         -5.0559    0.8601    0.0562 H         1 <0>         0.0343
     24 H2         -2.1043   -1.4820   -0.0589 H         1 <0>         0.0629
     25 H3         -3.5298    2.5833    0.0978 H         1 <0>         0.0622
     26 H4         -4.1196   -1.7950    1.2652 H         1 <0>         0.0235
     27 H5         -5.7591   -1.1307    1.2701 H         1 <0>         0.0235
     28 H6         -4.4727   -0.3191    2.1776 H         1 <0>         0.0235
     29 H7         -4.5227   -0.1700   -2.1543 H         1 <0>         0.0235
     30 H8         -5.7885   -1.0430   -1.2753 H         1 <0>         0.0235
     31 H9         -4.1500   -1.7049   -1.3540 H         1 <0>         0.0235
     32 H10        -1.2134    3.4039    0.0984 H         1 <0>         0.0654
     33 H11         2.9433   -2.1308   -0.1538 H         1 <0>         0.0635
     34 H12         5.5663    2.6066   -0.0161 H         1 <0>         0.1437
     35 H13         6.3537    1.1185    0.3895 H         1 <0>         0.1437
     36 H14         6.1194   -3.0015    0.4177 H         1 <0>         0.2954
@<TRIPOS>BOND
     1    1   11 1
     2    1   18 1
     3    2   14 2
     4    3   22 1
     5    3   36 1
     6    4   22 2
     7    5   18 ar
     8    5   21 ar
     9    6   21 1
    10    6   34 1
    11    6   35 1
    12    7    8 1
    13    7   15 1
    14    7   16 1
    15    7   23 1
    16    8   10 ar
    17    8   12 ar
    18    9   10 ar
    19    9   11 ar
    20    9   14 1
    21   10   24 1
    22   11   17 ar
    23   12   17 ar
    24   12   25 1
    25   13   14 1
    26   13   18 ar
    27   13   19 ar
    28   15   26 1
    29   15   27 1
    30   15   28 1
    31   16   29 1
    32   16   30 1
    33   16   31 1
    34   17   32 1
    35   19   20 ar
    36   19   33 1
    37   20   21 ar
    38   20   22 1
