@<TRIPOS>MOLECULE
DB01600
   30    31     0     0     0
SMALL
USER_CHARGES

@<TRIPOS>ATOM
      1 S1         -0.6427   -0.6349   -1.1510 S.3       1 <0>        -0.0891
      2 O1         -4.8754    1.8839   -0.5661 O.3       1 <0>        -0.4802
      3 O2          1.9414   -2.6907   -0.4124 O.2       1 <0>        -0.2861
      4 O3         -3.0296    2.1001    0.7309 O.2       1 <0>        -0.2503
      5 C1         -3.2547    0.0811   -0.6250 C.3       1 <0>         0.0846
      6 C2         -1.9594   -0.3855   -0.0849 C.2       1 <0>         0.0039
      7 C3          0.3118   -1.1092    0.1483 C.2       1 <0>         0.0597
      8 C4         -1.6282   -0.6715    1.2213 C.2       1 <0>        -0.0501
      9 C5         -4.4316   -0.8975   -0.3986 C.3       1 <0>        -0.0477
     10 C6         -0.2756   -1.1009    1.3486 C.2       1 <0>        -0.0435
     11 C7          1.7234   -1.4985   -0.1496 C.2       1 <0>         0.1997
     12 C8         -3.6829    1.4523   -0.0769 C.2       1 <0>         0.3124
     13 C9          2.8156   -0.5385   -0.1389 C.ar      1 <0>         0.0228
     14 C10         2.5639    0.8011    0.1579 C.ar      1 <0>        -0.0509
     15 C11         4.1151   -0.9571   -0.4251 C.ar      1 <0>        -0.0509
     16 C12         3.6115    1.7220    0.1684 C.ar      1 <0>        -0.0611
     17 C13         5.1626   -0.0361   -0.4145 C.ar      1 <0>        -0.0611
     18 C14         4.9108    1.3034   -0.1178 C.ar      1 <0>        -0.0617
     19 H1         -3.1638    0.2277   -1.7108 H         1 <0>         0.0465
     20 H2         -2.3185   -0.5807    2.0504 H         1 <0>         0.0626
     21 H3         -4.1708   -1.9008   -0.7531 H         1 <0>         0.0241
     22 H4         -4.6860   -0.9711    0.6648 H         1 <0>         0.0241
     23 H5         -5.3306   -0.5772   -0.9359 H         1 <0>         0.0241
     24 H6          0.1960   -1.3773    2.2824 H         1 <0>         0.0630
     25 H7          1.5698    1.1704    0.3897 H         1 <0>         0.0625
     26 H8          4.3382   -1.9947   -0.6593 H         1 <0>         0.0625
     27 H9          3.4161    2.7649    0.4001 H         1 <0>         0.0618
     28 H10         6.1746   -0.3617   -0.6373 H         1 <0>         0.0618
     29 H11         5.7266    2.0204   -0.1094 H         1 <0>         0.0618
     30 H12        -5.1276    2.7567   -0.1961 H         1 <0>         0.2951
@<TRIPOS>BOND
     1    1    6 1
     2    1    7 1
     3    2   12 1
     4    2   30 1
     5    3   11 2
     6    4   12 2
     7    5    6 1
     8    5    9 1
     9    5   12 1
    10    5   19 1
    11    6    8 2
    12    7   10 2
    13    7   11 1
    14    8   10 1
    15    8   20 1
    16    9   21 1
    17    9   22 1
    18    9   23 1
    19   10   24 1
    20   11   13 1
    21   13   14 ar
    22   13   15 ar
    23   14   16 ar
    24   14   25 1
    25   15   17 ar
    26   15   26 1
    27   16   18 ar
    28   16   27 1
    29   17   18 ar
    30   17   28 1
    31   18   29 1
