@<TRIPOS>MOLECULE
DB01104
   37    39     0     0     0
SMALL
USER_CHARGES

@<TRIPOS>ATOM
      1 Cl1        -3.3318    1.2058   -3.2897 Cl        1 <0>        -0.0820
      2 Cl2        -6.0208    0.9462   -1.5093 Cl        1 <0>        -0.0820
      3 N1          2.5278    0.9216   -0.9752 N.3       1 <0>        -0.3123
      4 C1         -0.5928    0.0933    0.9823 C.3       1 <0>         0.0096
      5 C2          0.1984    1.4165    0.9420 C.3       1 <0>        -0.0405
      6 C3          2.3423    0.2504    0.3155 C.3       1 <0>         0.0329
      7 C4          1.6593    1.1937    1.3140 C.3       1 <0>        -0.0326
      8 C5          0.1759   -1.1054    0.4321 C.ar      1 <0>        -0.0353
      9 C6          1.5547   -1.0322    0.1437 C.ar      1 <0>        -0.0267
     10 C7         -1.9562    0.3116    0.3381 C.ar      1 <0>        -0.0385
     11 C8         -0.4792   -2.3437    0.2870 C.ar      1 <0>        -0.0577
     12 C9          2.2247   -2.1757   -0.3288 C.ar      1 <0>        -0.0568
     13 C10        -2.0380    0.6230   -1.0150 C.ar      1 <0>        -0.0382
     14 C11        -3.1087    0.1976    1.1085 C.ar      1 <0>        -0.0565
     15 C12         0.2001   -3.4694   -0.1792 C.ar      1 <0>        -0.0615
     16 C13         1.5510   -3.3841   -0.4923 C.ar      1 <0>        -0.0614
     17 C14         3.2749    2.1562   -0.8061 C.3       1 <0>        -0.0152
     18 C15        -3.2863    0.8226   -1.6044 C.ar      1 <0>         0.0595
     19 C16        -4.3570    0.3973    0.5193 C.ar      1 <0>        -0.0417
     20 C17        -4.4458    0.7097   -0.8373 C.ar      1 <0>         0.0593
     21 H1         -0.7444   -0.1398    2.0472 H         1 <0>         0.0397
     22 H2         -0.2545    2.1297    1.6431 H         1 <0>         0.0275
     23 H3          0.1510    1.8965   -0.0427 H         1 <0>         0.0275
     24 H4          3.3251   -0.0121    0.7319 H         1 <0>         0.0510
     25 H5          2.1757    2.1493    1.4433 H         1 <0>         0.0284
     26 H6          1.6918    0.7291    2.3105 H         1 <0>         0.0284
     27 H7          3.0513    0.3034   -1.5957 H         1 <0>         0.1222
     28 H8         -1.5315   -2.4460    0.5410 H         1 <0>         0.0621
     29 H9          3.2850   -2.1287   -0.5669 H         1 <0>         0.0621
     30 H10        -1.1353    0.7024   -1.6163 H         1 <0>         0.0635
     31 H11        -3.0547   -0.0455    2.1660 H         1 <0>         0.0621
     32 H12        -0.3263   -4.4128   -0.2918 H         1 <0>         0.0618
     33 H13         2.0829   -4.2586   -0.8548 H         1 <0>         0.0618
     34 H14         2.6507    2.9735   -0.4331 H         1 <0>         0.0388
     35 H15         4.1586    2.0347   -0.1707 H         1 <0>         0.0388
     36 H16         3.6325    2.4846   -1.7885 H         1 <0>         0.0388
     37 H17        -5.2503    0.3054    1.1321 H         1 <0>         0.0633
@<TRIPOS>BOND
     1    1   18 1
     2    2   20 1
     3    3    6 1
     4    3   17 1
     5    3   27 1
     6    4    5 1
     7    4    8 1
     8    4   10 1
     9    4   21 1
    10    5    7 1
    11    5   22 1
    12    5   23 1
    13    6    7 1
    14    6    9 1
    15    6   24 1
    16    7   25 1
    17    7   26 1
    18    8    9 ar
    19    8   11 ar
    20    9   12 ar
    21   10   13 ar
    22   10   14 ar
    23   11   15 ar
    24   11   28 1
    25   12   16 ar
    26   12   29 1
    27   13   18 ar
    28   13   30 1
    29   14   19 ar
    30   14   31 1
    31   15   16 ar
    32   15   32 1
    33   16   33 1
    34   17   34 1
    35   17   35 1
    36   17   36 1
    37   18   20 ar
    38   19   20 ar
    39   19   37 1
