@<TRIPOS>MOLECULE
DB01764
   98   100     0     0     0
SMALL
USER_CHARGES

@<TRIPOS>ATOM
      1 S1         -4.0503    0.8762    1.5416 S.o2      1 <0>        -0.0247
      2 O1         -0.1969   -1.3690   -0.6699 O.3       1 <0>        -0.4592
      3 O2         -3.7834    2.1457    0.8919 O.2       1 <0>        -0.1740
      4 O3         -4.4057    0.8189    2.9470 O.2       1 <0>        -0.1740
      5 O4         -2.1577   -2.5697   -0.5857 O.2       1 <0>        -0.2487
      6 O5         -1.6130    1.1663   -2.5597 O.2       1 <0>        -0.2682
      7 O6          1.1893    4.2489   -2.4497 O.3       1 <0>        -0.4467
      8 O7          4.0716   -2.0203    0.5643 O.2       1 <0>        -0.2708
      9 O8          3.5347    3.8524    1.4553 O.2       1 <0>        -0.2968
     10 O9          3.3644    0.8967    0.5256 O.3       1 <0>        -0.3873
     11 N1         -1.2892    0.9407   -0.2939 N.am      1 <0>        -0.2810
     12 N2         -7.7015    0.1293   -0.0154 N.3       1 <0>        -0.3013
     13 N3          0.7457    3.0456   -0.5931 N.2       1 <0>        -0.2083
     14 N4          6.1012   -2.5283   -0.4455 N.am      1 <0>        -0.3083
     15 C1         -2.6446   -0.1733    1.2898 C.3       1 <0>         0.1071
     16 C2         -2.2187   -0.1866   -0.1775 C.3       1 <0>         0.1454
     17 C3         -1.4129    0.3654    2.0105 C.3       1 <0>        -0.0125
     18 C4         -0.8061    1.3559    1.0233 C.3       1 <0>         0.0178
     19 C5         -5.3340    0.0584    0.6250 C.3       1 <0>         0.0788
     20 C6         -1.5417   -1.5121   -0.5162 C.2       1 <0>         0.3300
     21 C7         -1.0472    1.5431   -1.5316 C.2       1 <0>         0.2688
     22 C8         -6.6578    0.7928    0.7562 C.3       1 <0>         0.0183
     23 C9          0.6072   -2.5434   -0.9377 C.3       1 <0>         0.1114
     24 C10         0.8609   -3.2537    0.3925 C.3       1 <0>        -0.0089
     25 C11         1.9122   -2.0524   -1.6096 C.3       1 <0>         0.0121
     26 C12        -0.0828    2.6289   -1.6061 C.2       1 <0>         0.1637
     27 C13        -8.9628    0.8666    0.0822 C.3       1 <0>        -0.0039
     28 C14        -7.8834   -1.2496    0.4418 C.3       1 <0>        -0.0039
     29 C15         1.5838   -2.3256    1.3647 C.3       1 <0>        -0.0593
     30 C16        -0.4522   -3.7472    0.9941 C.3       1 <0>        -0.0593
     31 C17         1.6071   -1.3207   -2.9260 C.3       1 <0>        -0.0556
     32 C18         2.8752   -3.1794   -1.8989 C.2       1 <0>        -0.0728
     33 C19         0.1866    3.3757   -2.7345 C.2       1 <0>         0.1245
     34 C20        -8.7973    2.3019   -0.3876 C.3       1 <0>        -0.0524
     35 C21        -8.9222   -1.9739   -0.3978 C.3       1 <0>        -0.0524
     36 C22         1.4875    3.9838   -1.1439 C.2       1 <0>         0.2032
     37 C23         4.0957   -3.3911   -1.3849 C.2       1 <0>        -0.0034
     38 C24         2.6106    4.7449   -0.5563 C.3       1 <0>         0.0824
     39 C25         4.7233   -2.5650   -0.3188 C.2       1 <0>         0.2368
     40 C26         3.4965    3.7978    0.2261 C.2       1 <0>         0.1450
     41 C27         4.3519    2.8206   -0.5786 C.3       1 <0>         0.0360
     42 C28         4.6007    1.4683    0.1004 C.3       1 <0>         0.0805
     43 C29         6.9631   -1.8113    0.4776 C.3       1 <0>         0.0305
     44 C30         5.5577    1.5474    1.2603 C.2       1 <0>        -0.0526
     45 C31         7.5904   -0.6555   -0.2401 C.2       1 <0>        -0.0668
     46 C32         6.8561    1.1889    1.2654 C.2       1 <0>        -0.0522
     47 C33         7.5457    0.6383    0.1150 C.2       1 <0>        -0.0615
     48 C34         7.7175    1.3646    2.4848 C.3       1 <0>        -0.0399
     49 H1         -2.9226   -1.1598    1.6757 H         1 <0>         0.0560
     50 H2         -3.0219   -0.0548   -0.9052 H         1 <0>         0.0636
     51 H3         -0.7056   -0.4514    2.1851 H         1 <0>         0.0299
     52 H4         -1.6222    0.8303    2.9783 H         1 <0>         0.0299
     53 H5         -1.1337    2.3824    1.2140 H         1 <0>         0.0465
     54 H6          0.2860    1.3120    1.0561 H         1 <0>         0.0465
     55 H7         -5.3595   -0.9472    1.0524 H         1 <0>         0.0513
     56 H8         -5.0401    0.0020   -0.4248 H         1 <0>         0.0513
     57 H9         -6.4800    1.8087    0.3889 H         1 <0>         0.0442
     58 H10        -6.9400    0.8799    1.8138 H         1 <0>         0.0442
     59 H11         0.0680   -3.2026   -1.6317 H         1 <0>         0.0742
     60 H12         1.4891   -4.1342    0.2118 H         1 <0>         0.0331
     61 H13         2.3910   -1.2850   -0.9995 H         1 <0>         0.0376
     62 H14        -9.7185    0.4256   -0.5760 H         1 <0>         0.0424
     63 H15        -9.3652    0.8576    1.1030 H         1 <0>         0.0424
     64 H16        -8.1587   -1.2995    1.5027 H         1 <0>         0.0424
     65 H17        -6.9697   -1.8348    0.3076 H         1 <0>         0.0424
     66 H18         1.9093   -1.3683    0.9634 H         1 <0>         0.0233
     67 H19         2.4055   -2.8606    1.8498 H         1 <0>         0.0233
     68 H20         0.9219   -2.0575    2.1975 H         1 <0>         0.0233
     69 H21        -1.0208   -4.3635    0.2919 H         1 <0>         0.0233
     70 H22        -0.2099   -4.4197    1.8287 H         1 <0>         0.0233
     71 H23        -1.0633   -2.9651    1.4492 H         1 <0>         0.0233
     72 H24         1.0006   -0.4267   -2.7510 H         1 <0>         0.0237
     73 H25         1.0628   -1.9650   -3.6256 H         1 <0>         0.0237
     74 H26         2.5311   -0.9948   -3.4177 H         1 <0>         0.0237
     75 H27         2.5391   -3.8913   -2.6527 H         1 <0>         0.0577
     76 H28        -0.1961    3.4010   -3.7441 H         1 <0>         0.1054
     77 H29        -8.2822    2.9274    0.3479 H         1 <0>         0.0242
     78 H30        -8.2657    2.3599   -1.3437 H         1 <0>         0.0242
     79 H31        -9.7850    2.7527   -0.5382 H         1 <0>         0.0242
     80 H32        -8.8731   -3.0499   -0.1946 H         1 <0>         0.0242
     81 H33        -8.7459   -1.8368   -1.4702 H         1 <0>         0.0242
     82 H34        -9.9437   -1.6603   -0.1618 H         1 <0>         0.0242
     83 H35         4.6763   -4.2345   -1.7500 H         1 <0>         0.0666
     84 H36         3.2169    5.2427   -1.3195 H         1 <0>         0.0437
     85 H37         2.2263    5.5153    0.1200 H         1 <0>         0.0437
     86 H38         3.8271    2.6253   -1.5215 H         1 <0>         0.0370
     87 H39         5.2945    3.3208   -0.8280 H         1 <0>         0.0370
     88 H40         6.5481   -3.0255   -1.2111 H         1 <0>         0.1493
     89 H41         4.9968    0.7864   -0.6597 H         1 <0>         0.0642
     90 H42         7.7445   -2.5094    0.7948 H         1 <0>         0.0506
     91 H43         6.3967   -1.5099    1.3630 H         1 <0>         0.0506
     92 H44         5.1423    1.9534    2.1810 H         1 <0>         0.0600
     93 H45         8.1765   -0.9058   -1.1234 H         1 <0>         0.0588
     94 H46         2.7585    0.9048   -0.2350 H         1 <0>         0.2102
     95 H47         8.1029    1.3595   -0.4789 H         1 <0>         0.0618
     96 H48         7.1635    1.8063    3.3201 H         1 <0>         0.0277
     97 H49         8.5644    2.0246    2.2669 H         1 <0>         0.0277
     98 H50         8.1084    0.3990    2.8242 H         1 <0>         0.0277
@<TRIPOS>BOND
     1    1    3 2
     2    1    4 2
     3    1   15 1
     4    1   19 1
     5    2   20 1
     6    2   23 1
     7    5   20 2
     8    6   21 2
     9    7   33 1
    10    7   36 1
    11    8   39 2
    12    9   40 2
    13   10   42 1
    14   10   94 1
    15   11   16 1
    16   11   18 1
    17   11   21 am
    18   12   22 1
    19   12   27 1
    20   12   28 1
    21   13   26 1
    22   13   36 2
    23   14   39 am
    24   14   43 1
    25   14   88 1
    26   15   16 1
    27   15   17 1
    28   15   49 1
    29   16   20 1
    30   16   50 1
    31   17   18 1
    32   17   51 1
    33   17   52 1
    34   18   53 1
    35   18   54 1
    36   19   22 1
    37   19   55 1
    38   19   56 1
    39   21   26 1
    40   22   57 1
    41   22   58 1
    42   23   24 1
    43   23   25 1
    44   23   59 1
    45   24   29 1
    46   24   30 1
    47   24   60 1
    48   25   31 1
    49   25   32 1
    50   25   61 1
    51   26   33 2
    52   27   34 1
    53   27   62 1
    54   27   63 1
    55   28   35 1
    56   28   64 1
    57   28   65 1
    58   29   66 1
    59   29   67 1
    60   29   68 1
    61   30   69 1
    62   30   70 1
    63   30   71 1
    64   31   72 1
    65   31   73 1
    66   31   74 1
    67   32   37 2
    68   32   75 1
    69   33   76 1
    70   34   77 1
    71   34   78 1
    72   34   79 1
    73   35   80 1
    74   35   81 1
    75   35   82 1
    76   36   38 1
    77   37   39 1
    78   37   83 1
    79   38   40 1
    80   38   84 1
    81   38   85 1
    82   40   41 1
    83   41   42 1
    84   41   86 1
    85   41   87 1
    86   42   44 1
    87   42   89 1
    88   43   45 1
    89   43   90 1
    90   43   91 1
    91   44   46 2
    92   44   92 1
    93   45   47 2
    94   45   93 1
    95   46   47 1
    96   46   48 1
    97   47   95 1
    98   48   96 1
    99   48   97 1
   100   48   98 1
