@<TRIPOS>MOLECULE
DB01606
   32    34     0     0     0
SMALL
USER_CHARGES

@<TRIPOS>ATOM
      1 S1          0.4343   -1.5618   -0.1238 S.o2      1 <0>        -0.0022
      2 O1         -0.3611   -2.2322   -1.1339 O.2       1 <0>        -0.1719
      3 O2          0.5632   -2.1278    1.2063 O.2       1 <0>        -0.1719
      4 O3          4.0612    0.2081    1.4366 O.2       1 <0>        -0.2754
      5 O4          0.4345    3.1194    0.5026 O.3       1 <0>        -0.4793
      6 O5          2.2293    2.6599   -0.8254 O.2       1 <0>        -0.2488
      7 N1          2.2691    0.1025   -0.0929 N.am      1 <0>        -0.2632
      8 N2         -2.4238   -0.3639    0.7000 N.pl3     1 <0>        -0.2495
      9 N3         -2.6095   -1.6557    0.9962 N.2       1 <0>        -0.0657
     10 N4         -3.7954   -1.9988    0.5053 N.2       1 <0>        -0.1380
     11 C1         -0.1218    0.1966    0.0291 C.3       1 <0>         0.1351
     12 C2          2.0470   -1.1754   -0.7867 C.3       1 <0>         0.1536
     13 C3          1.1843    0.8975    0.4501 C.3       1 <0>         0.1508
     14 C4          3.3280   -1.6824   -0.1136 C.3       1 <0>         0.0629
     15 C5          3.3887   -0.3024    0.5699 C.2       1 <0>         0.2212
     16 C6         -1.2057    0.3118    1.1017 C.3       1 <0>         0.0703
     17 C7         -0.6744    0.6689   -1.3247 C.3       1 <0>        -0.0358
     18 C8          1.3644    2.2971   -0.0420 C.2       1 <0>         0.3278
     19 C9         -3.4695    0.1617    0.0162 C.2       1 <0>         0.0455
     20 C10        -4.3350   -0.8969   -0.0980 C.2       1 <0>         0.0693
     21 H1          2.0719   -1.0728   -1.8752 H         1 <0>         0.0750
     22 H2          1.3086    0.9005    1.5406 H         1 <0>         0.0640
     23 H3          4.1639   -1.8714   -0.7924 H         1 <0>         0.0393
     24 H4          3.2129   -2.5205    0.5776 H         1 <0>         0.0393
     25 H5         -1.4701    1.3597    1.2861 H         1 <0>         0.0532
     26 H6         -0.8933   -0.1152    2.0617 H         1 <0>         0.0532
     27 H7          0.1234    0.7106   -2.0760 H         1 <0>         0.0252
     28 H8         -1.4313   -0.0010   -1.7426 H         1 <0>         0.0252
     29 H9         -1.1083    1.6724   -1.2580 H         1 <0>         0.0252
     30 H10         0.5353    4.0439    0.1907 H         1 <0>         0.2951
     31 H11        -3.5175    1.1902   -0.3116 H         1 <0>         0.0842
     32 H12        -5.3035   -0.9227   -0.5739 H         1 <0>         0.0864
@<TRIPOS>BOND
     1    1    2 2
     2    1    3 2
     3    1   11 1
     4    1   12 1
     5    4   15 2
     6    5   18 1
     7    5   30 1
     8    6   18 2
     9    7   12 1
    10    7   13 1
    11    7   15 am
    12    8    9 1
    13    8   16 1
    14    8   19 2
    15    9   10 1
    16   10   20 2
    17   11   13 1
    18   11   16 1
    19   11   17 1
    20   12   14 1
    21   12   21 1
    22   13   18 1
    23   13   22 1
    24   14   15 1
    25   14   23 1
    26   14   24 1
    27   16   25 1
    28   16   26 1
    29   17   27 1
    30   17   28 1
    31   17   29 1
    32   19   20 1
    33   19   31 1
    34   20   32 1
