@<TRIPOS>MOLECULE
DB01241
   40    40     0     0     0
SMALL
USER_CHARGES

@<TRIPOS>ATOM
      1 O1         -0.7658   -0.0407   -1.0601 O.3       1 <0>        -0.4917
      2 O2          3.3607    1.5411   -1.4101 O.3       1 <0>        -0.4802
      3 O3          4.7433   -0.2298   -1.6359 O.2       1 <0>        -0.2504
      4 C1          3.3311   -0.1196    0.3575 C.3       1 <0>         0.0621
      5 C2          1.7919   -0.2932    0.2973 C.3       1 <0>        -0.0347
      6 C3          1.2931   -1.2649   -0.7775 C.3       1 <0>        -0.0176
      7 C4          4.0086   -1.4527    0.7327 C.3       1 <0>        -0.0497
      8 C5          3.6908    0.9075    1.4476 C.3       1 <0>        -0.0497
      9 C6         -0.2301   -1.3318   -0.8017 C.3       1 <0>         0.0896
     10 C7          3.8924    0.3664   -0.9857 C.2       1 <0>         0.3104
     11 C8         -2.0028    0.2312   -0.5369 C.ar      1 <0>         0.1236
     12 C9         -2.3472    1.5304   -0.1789 C.ar      1 <0>        -0.0088
     13 C10        -2.9079   -0.8120   -0.3699 C.ar      1 <0>        -0.0168
     14 C11        -4.1713   -0.5527    0.1613 C.ar      1 <0>        -0.0470
     15 C12        -3.6106    1.7895    0.3524 C.ar      1 <0>        -0.0551
     16 C13        -4.5226    0.7480    0.5223 C.ar      1 <0>        -0.0584
     17 C14        -1.3832    2.6572   -0.3528 C.3       1 <0>        -0.0362
     18 C15        -5.1470   -1.6659    0.3430 C.3       1 <0>        -0.0396
     19 H1          1.4271   -0.6300    1.2768 H         1 <0>         0.0277
     20 H2          1.3389    0.6916    0.1262 H         1 <0>         0.0277
     21 H3          1.6443   -0.9313   -1.7606 H         1 <0>         0.0298
     22 H4          1.6873   -2.2712   -0.6050 H         1 <0>         0.0298
     23 H5          3.5952   -1.8596    1.6622 H         1 <0>         0.0240
     24 H6          3.8875   -2.2087   -0.0503 H         1 <0>         0.0240
     25 H7          5.0873   -1.3199    0.8782 H         1 <0>         0.0240
     26 H8          4.7720    1.0854    1.4823 H         1 <0>         0.0240
     27 H9          3.2108    1.8745    1.2582 H         1 <0>         0.0240
     28 H10         3.3709    0.5652    2.4380 H         1 <0>         0.0240
     29 H11        -0.5577   -1.7263    0.1693 H         1 <0>         0.0696
     30 H12        -0.5477   -2.0179   -1.5953 H         1 <0>         0.0696
     31 H13         3.7389    1.8244   -2.2696 H         1 <0>         0.2951
     32 H14        -2.6783   -1.8300   -0.6715 H         1 <0>         0.0657
     33 H15        -3.8996    2.7971    0.6393 H         1 <0>         0.0621
     34 H16        -5.5043    0.9637    0.9357 H         1 <0>         0.0620
     35 H17        -1.8439    3.6264   -0.1332 H         1 <0>         0.0279
     36 H18        -0.5303    2.5324    0.3220 H         1 <0>         0.0279
     37 H19        -1.0212    2.6964   -1.3856 H         1 <0>         0.0279
     38 H20        -5.6731   -1.8616   -0.5967 H         1 <0>         0.0278
     39 H21        -4.6391   -2.5825    0.6618 H         1 <0>         0.0278
     40 H22        -5.8883   -1.4261    1.1129 H         1 <0>         0.0278
@<TRIPOS>BOND
     1    1    9 1
     2    1   11 1
     3    2   10 1
     4    2   31 1
     5    3   10 2
     6    4    5 1
     7    4    7 1
     8    4    8 1
     9    4   10 1
    10    5    6 1
    11    5   19 1
    12    5   20 1
    13    6    9 1
    14    6   21 1
    15    6   22 1
    16    7   23 1
    17    7   24 1
    18    7   25 1
    19    8   26 1
    20    8   27 1
    21    8   28 1
    22    9   29 1
    23    9   30 1
    24   11   12 ar
    25   11   13 ar
    26   12   15 ar
    27   12   17 1
    28   13   14 ar
    29   13   32 1
    30   14   16 ar
    31   14   18 1
    32   15   16 ar
    33   15   33 1
    34   16   34 1
    35   17   35 1
    36   17   36 1
    37   17   37 1
    38   18   38 1
    39   18   39 1
    40   18   40 1
