@<TRIPOS>MOLECULE
DB01708
   49    52     0     0     0
SMALL
USER_CHARGES

@<TRIPOS>ATOM
      1 O1         -5.0843   -1.1983   -1.0144 O.2       1 <0>        -0.2968
      2 O2          5.7533    0.4193   -0.1995 O.3       1 <0>        -0.3915
      3 C1          0.0602   -0.3942   -0.4280 C.3       1 <0>        -0.0285
      4 C2         -0.8058    0.7360    0.2057 C.3       1 <0>        -0.0303
      5 C3         -2.2229    0.6610   -0.3676 C.3       1 <0>        -0.0252
      6 C4         -2.8919   -0.6974   -0.0860 C.3       1 <0>         0.0293
      7 C5          1.5285   -0.3937    0.1578 C.3       1 <0>        -0.0078
      8 C6         -0.6379   -1.7840   -0.3959 C.3       1 <0>        -0.0483
      9 C7         -2.1087   -1.7609   -0.8485 C.3       1 <0>        -0.0404
     10 C8         -3.2646    1.6892    0.0599 C.3       1 <0>        -0.0424
     11 C9         -0.1721    2.1062   -0.0737 C.3       1 <0>        -0.0311
     12 C10         2.0856    1.0353    0.2286 C.2       1 <0>        -0.0648
     13 C11         2.4297   -1.2477   -0.7831 C.3       1 <0>        -0.0413
     14 C12        -4.2795   -0.3707   -0.6082 C.2       1 <0>         0.1395
     15 C13        -4.5626    1.1206   -0.5325 C.3       1 <0>         0.0067
     16 C14         1.3118    2.1283    0.1090 C.2       1 <0>        -0.0839
     17 C15        -3.0557   -1.0701    1.3986 C.3       1 <0>        -0.0526
     18 C16         1.5662   -0.9918    1.5846 C.3       1 <0>        -0.0556
     19 C17         3.5749    1.1854    0.4367 C.3       1 <0>        -0.0051
     20 C18         3.9271   -1.1216   -0.5066 C.3       1 <0>        -0.0258
     21 C19         4.3747    0.3360   -0.5462 C.3       1 <0>         0.0590
     22 H1          0.1443   -0.1406   -1.4976 H         1 <0>         0.0312
     23 H2         -0.8473    0.6022    1.2927 H         1 <0>         0.0310
     24 H3         -2.1250    0.7790   -1.4611 H         1 <0>         0.0313
     25 H4         -0.6020   -2.2054    0.6130 H         1 <0>         0.0269
     26 H5         -0.0958   -2.4849   -1.0406 H         1 <0>         0.0269
     27 H6         -2.1541   -1.5684   -1.9284 H         1 <0>         0.0275
     28 H7         -2.5558   -2.7516   -0.7011 H         1 <0>         0.0275
     29 H8         -3.0568    2.6888   -0.3343 H         1 <0>         0.0272
     30 H9         -3.3308    1.7680    1.1505 H         1 <0>         0.0272
     31 H10        -0.6200    2.8503    0.5960 H         1 <0>         0.0310
     32 H11        -0.3895    2.4311   -1.0989 H         1 <0>         0.0310
     33 H12         2.2550   -0.9518   -1.8267 H         1 <0>         0.0274
     34 H13         2.1571   -2.3076   -0.7139 H         1 <0>         0.0274
     35 H14        -4.7325    1.4995   -1.5443 H         1 <0>         0.0342
     36 H15        -5.4216    1.3250    0.1101 H         1 <0>         0.0342
     37 H16         1.7677    3.1148    0.1470 H         1 <0>         0.0572
     38 H17        -2.1018   -1.1327    1.9290 H         1 <0>         0.0239
     39 H18        -3.6852   -0.3563    1.9411 H         1 <0>         0.0239
     40 H19        -3.5466   -2.0464    1.4917 H         1 <0>         0.0239
     41 H20         2.5559   -0.9070    2.0456 H         1 <0>         0.0238
     42 H21         0.8623   -0.4886    2.2555 H         1 <0>         0.0238
     43 H22         1.3238   -2.0594    1.5826 H         1 <0>         0.0238
     44 H23         3.8910    2.2323    0.3397 H         1 <0>         0.0335
     45 H24         3.8327    0.9086    1.4668 H         1 <0>         0.0335
     46 H25         4.1814   -1.5695    0.4619 H         1 <0>         0.0290
     47 H26         4.4921   -1.6977   -1.2497 H         1 <0>         0.0290
     48 H27         4.2618    0.7265   -1.5650 H         1 <0>         0.0596
     49 H28         6.0136    1.3548   -0.2522 H         1 <0>         0.2098
@<TRIPOS>BOND
     1    1   14 2
     2    2   21 1
     3    2   49 1
     4    3    4 1
     5    3    7 1
     6    3    8 1
     7    3   22 1
     8    4    5 1
     9    4   11 1
    10    4   23 1
    11    5    6 1
    12    5   10 1
    13    5   24 1
    14    6    9 1
    15    6   14 1
    16    6   17 1
    17    7   12 1
    18    7   13 1
    19    7   18 1
    20    8    9 1
    21    8   25 1
    22    8   26 1
    23    9   27 1
    24    9   28 1
    25   10   15 1
    26   10   29 1
    27   10   30 1
    28   11   16 1
    29   11   31 1
    30   11   32 1
    31   12   16 2
    32   12   19 1
    33   13   20 1
    34   13   33 1
    35   13   34 1
    36   14   15 1
    37   15   35 1
    38   15   36 1
    39   16   37 1
    40   17   38 1
    41   17   39 1
    42   17   40 1
    43   18   41 1
    44   18   42 1
    45   18   43 1
    46   19   21 1
    47   19   44 1
    48   19   45 1
    49   20   21 1
    50   20   46 1
    51   20   47 1
    52   21   48 1
