@<TRIPOS>MOLECULE
DB01193
   52    52     0     0     0
SMALL
USER_CHARGES

@<TRIPOS>ATOM
      1 O1          1.9449   -1.9420    0.7732 O.3       1 <0>        -0.4887
      2 O2          4.5746   -2.8454    0.7072 O.3       1 <0>        -0.3872
      3 O3          2.0363   -0.6384    3.1157 O.2       1 <0>        -0.2922
      4 O4         -4.1899   -1.2960   -1.2869 O.2       1 <0>        -0.2755
      5 N1          3.8469    0.1678   -1.3179 N.3       1 <0>        -0.3112
      6 N2         -3.2962   -0.0811    0.5126 N.am      1 <0>        -0.2855
      7 C1          4.0306   -2.1283   -0.4046 C.3       1 <0>         0.1015
      8 C2          4.3950   -0.6504   -0.2448 C.3       1 <0>         0.0254
      9 C3          4.1601    1.5753   -1.1116 C.3       1 <0>         0.0021
     10 C4          2.5248   -2.3780   -0.4543 C.3       1 <0>         0.1166
     11 C5          3.2065    2.1849   -0.0880 C.3       1 <0>        -0.0499
     12 C6          4.0794    2.3140   -2.4438 C.3       1 <0>        -0.0499
     13 C7          0.6646   -1.4773    0.7220 C.ar      1 <0>         0.1312
     14 C8          0.2203   -0.5035    1.6164 C.ar      1 <0>         0.0605
     15 C9         -1.9632   -0.5511    0.5836 C.ar      1 <0>         0.0343
     16 C10        -1.0935   -0.0403    1.5471 C.ar      1 <0>        -0.0265
     17 C11        -0.2051   -1.9879   -0.2417 C.ar      1 <0>        -0.0175
     18 C12        -1.5189   -1.5249   -0.3109 C.ar      1 <0>        -0.0370
     19 C13        -5.5839    0.2803   -0.1093 C.3       1 <0>         0.0240
     20 C14        -6.7285   -0.0965   -1.0472 C.3       1 <0>        -0.0476
     21 C15         1.1123    0.0422    2.6301 C.2       1 <0>         0.1637
     22 C16        -4.2894   -0.4773   -0.3789 C.2       1 <0>         0.2172
     23 C17        -8.0053    0.6773   -0.7505 C.3       1 <0>        -0.0648
     24 C18         0.9296    1.4728    3.1221 C.3       1 <0>        -0.0013
     25 H1          4.4955   -2.5311   -1.3116 H         1 <0>         0.0640
     26 H2          5.4898   -0.5666   -0.2208 H         1 <0>         0.0450
     27 H3          4.0499   -0.3093    0.7380 H         1 <0>         0.0450
     28 H4          5.1907    1.6919   -0.7510 H         1 <0>         0.0455
     29 H5          4.2367   -0.1532   -2.2040 H         1 <0>         0.1223
     30 H6          2.3398   -3.4547   -0.5478 H         1 <0>         0.0723
     31 H7          2.1093   -1.8619   -1.3283 H         1 <0>         0.0723
     32 H8          2.1600    2.0473   -0.3832 H         1 <0>         0.0245
     33 H9          3.3372    1.7512    0.9078 H         1 <0>         0.0245
     34 H10         3.3836    3.2621    0.0069 H         1 <0>         0.0245
     35 H11         3.0754    2.2500   -2.8787 H         1 <0>         0.0245
     36 H12         4.7898    1.9017   -3.1690 H         1 <0>         0.0245
     37 H13         4.3202    3.3748   -2.3133 H         1 <0>         0.0245
     38 H14         4.1292   -2.5279    1.5114 H         1 <0>         0.2100
     39 H15        -1.4601    0.7080    2.2456 H         1 <0>         0.0644
     40 H16         0.0875   -2.7710   -0.9352 H         1 <0>         0.0655
     41 H17        -2.1345   -1.9747   -1.0768 H         1 <0>         0.0637
     42 H18        -5.3734    1.3531   -0.1996 H         1 <0>         0.0358
     43 H19        -5.8804    0.0851    0.9285 H         1 <0>         0.0358
     44 H20        -3.5412    0.6260    1.2025 H         1 <0>         0.1548
     45 H21        -6.9328   -1.1709   -0.9665 H         1 <0>         0.0267
     46 H22        -6.4303    0.0885   -2.0861 H         1 <0>         0.0267
     47 H23        -8.3514    0.4834    0.2697 H         1 <0>         0.0230
     48 H24        -8.7992    0.3793   -1.4423 H         1 <0>         0.0230
     49 H25        -7.8438    1.7544   -0.8604 H         1 <0>         0.0230
     50 H26         0.2367    1.4851    3.9667 H         1 <0>         0.0309
     51 H27         0.5638    2.1167    2.3177 H         1 <0>         0.0309
     52 H28         1.8999    1.8664    3.4401 H         1 <0>         0.0309
@<TRIPOS>BOND
     1    1   10 1
     2    1   13 1
     3    2    7 1
     4    2   38 1
     5    3   21 2
     6    4   22 2
     7    5    8 1
     8    5    9 1
     9    5   29 1
    10    6   15 1
    11    6   22 am
    12    6   44 1
    13    7    8 1
    14    7   10 1
    15    7   25 1
    16    8   26 1
    17    8   27 1
    18    9   11 1
    19    9   12 1
    20    9   28 1
    21   10   30 1
    22   10   31 1
    23   11   32 1
    24   11   33 1
    25   11   34 1
    26   12   35 1
    27   12   36 1
    28   12   37 1
    29   13   14 ar
    30   13   17 ar
    31   14   16 ar
    32   14   21 1
    33   15   16 ar
    34   15   18 ar
    35   16   39 1
    36   17   18 ar
    37   17   40 1
    38   18   41 1
    39   19   20 1
    40   19   22 1
    41   19   42 1
    42   19   43 1
    43   20   23 1
    44   20   45 1
    45   20   46 1
    46   21   24 1
    47   23   47 1
    48   23   48 1
    49   23   49 1
    50   24   50 1
    51   24   51 1
    52   24   52 1
