@<TRIPOS>MOLECULE
DB01605
   63    65     0     0     0
SMALL
USER_CHARGES

@<TRIPOS>ATOM
      1 S1         -0.9897    0.6763   -0.4487 S.3       1 <0>        -0.1270
      2 O1         -0.7664   -3.5128    0.8979 O.2       1 <0>        -0.2731
      3 O2          3.0173   -1.4313    1.4343 O.3       1 <0>        -0.4260
      4 O3          2.7272   -1.9541   -0.7976 O.2       1 <0>        -0.2486
      5 O4          5.2148   -1.2327    0.4819 O.3       1 <0>        -0.4269
      6 O5          5.4428    0.5049    1.9730 O.2       1 <0>        -0.2502
      7 N1          0.0470   -1.7002   -0.3761 N.am      1 <0>        -0.2703
      8 N2         -3.0353   -1.4780    0.0591 N.2       1 <0>        -0.2611
      9 N3         -5.3332   -0.8641   -0.0460 N.pl3     1 <0>        -0.3214
     10 C1         -0.9139   -0.9820   -1.2186 C.3       1 <0>         0.1045
     11 C2          0.7880    0.5487    0.0926 C.3       1 <0>         0.0417
     12 C3          0.9496   -0.9408    0.4653 C.3       1 <0>         0.1382
     13 C4         -1.9702   -2.0014   -0.7704 C.3       1 <0>         0.1557
     14 C5         -0.8422   -2.6359    0.0673 C.2       1 <0>         0.2445
     15 C6          1.0046    1.4541    1.3065 C.3       1 <0>        -0.0484
     16 C7          1.6710    1.0128   -1.0738 C.3       1 <0>        -0.0484
     17 C8          2.3199   -1.5050    0.2653 C.2       1 <0>         0.3319
     18 C9         -4.1662   -1.3299   -0.5587 C.2       1 <0>         0.0793
     19 C10        -5.4274   -0.5074    1.3682 C.3       1 <0>         0.0130
     20 C11        -6.5240   -0.7589   -0.8845 C.3       1 <0>         0.0130
     21 C12        -6.4211    0.6099    1.6814 C.3       1 <0>        -0.0372
     22 C13        -6.6160    0.6385   -1.4918 C.3       1 <0>        -0.0372
     23 C14        -6.2967    1.8337    0.7737 C.3       1 <0>        -0.0516
     24 C15        -7.1069    1.7079   -0.5172 C.3       1 <0>        -0.0516
     25 C16         4.3634   -1.9338    1.4031 C.3       1 <0>         0.2388
     26 C17         6.5653    0.6085   -0.1948 C.3       1 <0>         0.0595
     27 C18         5.6883   -0.0189    0.8931 C.2       1 <0>         0.3152
     28 C19         7.0727    1.9789    0.2818 C.3       1 <0>        -0.0499
     29 C20         5.7327    0.8002   -1.4698 C.3       1 <0>        -0.0499
     30 C21         7.7704   -0.2997   -0.4734 C.3       1 <0>        -0.0499
     31 H1         -0.6473   -1.0030   -2.2792 H         1 <0>         0.0643
     32 H2          0.6395   -1.1274    1.5029 H         1 <0>         0.0631
     33 H3         -2.2984   -2.6842   -1.5655 H         1 <0>         0.0669
     34 H4          0.8206    2.5070    1.0635 H         1 <0>         0.0244
     35 H5          0.3479    1.1825    2.1412 H         1 <0>         0.0244
     36 H6          2.0373    1.3773    1.6660 H         1 <0>         0.0244
     37 H7          1.4407    2.0440   -1.3666 H         1 <0>         0.0244
     38 H8          2.7260    0.9934   -0.7854 H         1 <0>         0.0244
     39 H9          1.5600    0.3798   -1.9610 H         1 <0>         0.0244
     40 H10        -4.2462   -1.5815   -1.6317 H         1 <0>         0.0995
     41 H11        -4.4460   -0.1824    1.7363 H         1 <0>         0.0464
     42 H12        -5.6962   -1.4012    1.9438 H         1 <0>         0.0464
     43 H13        -6.4711   -1.4955   -1.6961 H         1 <0>         0.0464
     44 H14        -7.4301   -1.0087   -0.3204 H         1 <0>         0.0464
     45 H15        -7.4478    0.2251    1.6590 H         1 <0>         0.0280
     46 H16        -6.2453    0.9248    2.7181 H         1 <0>         0.0280
     47 H17        -5.6438    0.9388   -1.9021 H         1 <0>         0.0280
     48 H18        -7.3157    0.6071   -2.3360 H         1 <0>         0.0280
     49 H19        -6.6852    2.7020    1.3207 H         1 <0>         0.0266
     50 H20        -5.2453    2.0496    0.5504 H         1 <0>         0.0266
     51 H21        -7.0907    2.6756   -1.0340 H         1 <0>         0.0266
     52 H22        -8.1575    1.5127   -0.2677 H         1 <0>         0.0266
     53 H23         4.7748   -1.8852    2.4176 H         1 <0>         0.1168
     54 H24         4.3461   -2.9909    1.1147 H         1 <0>         0.1168
     55 H25         7.6984    2.4579   -0.4795 H         1 <0>         0.0240
     56 H26         7.6705    1.8850    1.1959 H         1 <0>         0.0240
     57 H27         6.2398    2.6561    0.5046 H         1 <0>         0.0240
     58 H28         4.8893    1.4740   -1.2887 H         1 <0>         0.0240
     59 H29         5.3254   -0.1470   -1.8402 H         1 <0>         0.0240
     60 H30         6.3379    1.2359   -2.2728 H         1 <0>         0.0240
     61 H31         7.4586   -1.2720   -0.8714 H         1 <0>         0.0240
     62 H32         8.3388   -0.4917    0.4439 H         1 <0>         0.0240
     63 H33         8.4494    0.1539   -1.2039 H         1 <0>         0.0240
@<TRIPOS>BOND
     1    1   10 1
     2    1   11 1
     3    2   14 2
     4    3   17 1
     5    3   25 1
     6    4   17 2
     7    5   25 1
     8    5   27 1
     9    6   27 2
    10    7   10 1
    11    7   12 1
    12    7   14 am
    13    8   13 1
    14    8   18 2
    15    9   18 1
    16    9   19 1
    17    9   20 1
    18   10   13 1
    19   10   31 1
    20   11   12 1
    21   11   15 1
    22   11   16 1
    23   12   17 1
    24   12   32 1
    25   13   14 1
    26   13   33 1
    27   15   34 1
    28   15   35 1
    29   15   36 1
    30   16   37 1
    31   16   38 1
    32   16   39 1
    33   18   40 1
    34   19   21 1
    35   19   41 1
    36   19   42 1
    37   20   22 1
    38   20   43 1
    39   20   44 1
    40   21   23 1
    41   21   45 1
    42   21   46 1
    43   22   24 1
    44   22   47 1
    45   22   48 1
    46   23   24 1
    47   23   49 1
    48   23   50 1
    49   24   51 1
    50   24   52 1
    51   25   53 1
    52   25   54 1
    53   26   27 1
    54   26   28 1
    55   26   29 1
    56   26   30 1
    57   28   55 1
    58   28   56 1
    59   28   57 1
    60   29   58 1
    61   29   59 1
    62   29   60 1
    63   30   61 1
    64   30   62 1
    65   30   63 1
