@<TRIPOS>MOLECULE
DB01624
   52    55     0     0     0
SMALL
USER_CHARGES

@<TRIPOS>ATOM
      1 Cl1         0.5294   -4.3105    1.3435 Cl        1 <0>        -0.0835
      2 S1          5.2840   -1.2450   -1.4491 S.3       1 <0>        -0.0882
      3 O1         -7.8576   -0.4872    1.0165 O.3       1 <0>        -0.3937
      4 N1         -1.7484    0.6341   -0.7126 N.3       1 <0>        -0.2996
      5 N2         -4.5997    0.6924   -0.2379 N.3       1 <0>        -0.2977
      6 C1         -2.2991    0.4879    0.6405 C.3       1 <0>         0.0117
      7 C2         -2.6437    1.4460   -1.5457 C.3       1 <0>         0.0117
      8 C3         -3.7050   -0.1205    0.5951 C.3       1 <0>         0.0118
      9 C4         -4.0492    0.8364   -1.5910 C.3       1 <0>         0.0118
     10 C5         -0.4094    1.2181   -0.6678 C.3       1 <0>         0.0024
     11 C6         -5.9395    0.1101   -0.2817 C.3       1 <0>         0.0222
     12 C7          0.5406    0.3059    0.1076 C.3       1 <0>        -0.0211
     13 C8         -6.5526    0.0688    1.1088 C.3       1 <0>         0.0569
     14 C9          1.9212    0.8791    0.1457 C.2       1 <0>        -0.0745
     15 C10         3.0404    0.1307    0.1933 C.2       1 <0>        -0.0125
     16 C11         2.9274   -1.3478    0.0739 C.ar      1 <0>        -0.0025
     17 C12         4.3636    0.8100    0.2281 C.ar      1 <0>        -0.0039
     18 C13         3.9078   -2.0588   -0.6442 C.ar      1 <0>         0.0205
     19 C14         5.4449    0.2507   -0.4788 C.ar      1 <0>         0.0205
     20 C15         1.8929   -2.0664    0.6986 C.ar      1 <0>        -0.0346
     21 C16         4.5815    1.9731    0.9876 C.ar      1 <0>        -0.0530
     22 C17         3.8162   -3.4540   -0.7597 C.ar      1 <0>        -0.0460
     23 C18         6.6996    0.8779   -0.4495 C.ar      1 <0>        -0.0474
     24 C19         1.8148   -3.4551    0.5831 C.ar      1 <0>         0.0416
     25 C20         5.8353    2.5855    1.0154 C.ar      1 <0>        -0.0611
     26 C21         2.7724   -4.1476   -0.1496 C.ar      1 <0>        -0.0423
     27 C22         6.8918    2.0414    0.2935 C.ar      1 <0>        -0.0607
     28 H1         -2.3268    1.4534    1.1634 H         1 <0>         0.0439
     29 H2         -1.7095   -0.2050    1.2473 H         1 <0>         0.0439
     30 H3         -2.2563    1.4928   -2.5708 H         1 <0>         0.0439
     31 H4         -2.7008    2.4769   -1.1703 H         1 <0>         0.0439
     32 H5         -3.6523   -1.1538    0.2261 H         1 <0>         0.0439
     33 H6         -4.0417   -0.1555    1.6352 H         1 <0>         0.0439
     34 H7         -4.6918    1.4979   -2.1848 H         1 <0>         0.0439
     35 H8         -4.0143   -0.1336   -2.1054 H         1 <0>         0.0439
     36 H9         -0.4323    2.2197   -0.2170 H         1 <0>         0.0429
     37 H10        -0.0274    1.3358   -1.6908 H         1 <0>         0.0429
     38 H11        -5.9299   -0.8975   -0.7186 H         1 <0>         0.0449
     39 H12        -6.5928    0.7123   -0.9266 H         1 <0>         0.0449
     40 H13         0.2183    0.2231    1.1484 H         1 <0>         0.0320
     41 H14         0.4699   -0.6466   -0.4198 H         1 <0>         0.0320
     42 H15        -6.6409    1.0730    1.5359 H         1 <0>         0.0570
     43 H16        -6.0085   -0.5629    1.8140 H         1 <0>         0.0570
     44 H17         1.9822    1.9646    0.1840 H         1 <0>         0.0579
     45 H18        -7.7691   -1.3903    0.6670 H         1 <0>         0.2095
     46 H19         1.2034   -1.5980    1.3934 H         1 <0>         0.0638
     47 H20         3.7831    2.4156    1.5790 H         1 <0>         0.0624
     48 H21         4.5584   -4.0177   -1.3210 H         1 <0>         0.0629
     49 H22         7.5428    0.4658   -0.9995 H         1 <0>         0.0629
     50 H23         5.9861    3.4854    1.6045 H         1 <0>         0.0618
     51 H24         2.7234   -5.2287   -0.2509 H         1 <0>         0.0632
     52 H25         7.8674    2.5180    0.3140 H         1 <0>         0.0618
@<TRIPOS>BOND
     1    1   24 1
     2    2   18 1
     3    2   19 1
     4    3   13 1
     5    3   45 1
     6    4    6 1
     7    4    7 1
     8    4   10 1
     9    5    8 1
    10    5    9 1
    11    5   11 1
    12    6    8 1
    13    6   28 1
    14    6   29 1
    15    7    9 1
    16    7   30 1
    17    7   31 1
    18    8   32 1
    19    8   33 1
    20    9   34 1
    21    9   35 1
    22   10   12 1
    23   10   36 1
    24   10   37 1
    25   11   13 1
    26   11   38 1
    27   11   39 1
    28   12   14 1
    29   12   40 1
    30   12   41 1
    31   13   42 1
    32   13   43 1
    33   14   15 2
    34   14   44 1
    35   15   16 1
    36   15   17 1
    37   16   18 ar
    38   16   20 ar
    39   17   19 ar
    40   17   21 ar
    41   18   22 ar
    42   19   23 ar
    43   20   24 ar
    44   20   46 1
    45   21   25 ar
    46   21   47 1
    47   22   26 ar
    48   22   48 1
    49   23   27 ar
    50   23   49 1
    51   24   26 ar
    52   25   27 ar
    53   25   50 1
    54   26   51 1
    55   27   52 1
