@<TRIPOS>MOLECULE
DB01576
   23    23     0     0     0
SMALL
USER_CHARGES

@<TRIPOS>ATOM
      1 N1         -3.1880   -0.4909    0.2361 N.3       1 <0>        -0.3272
      2 C1         -1.8297   -0.2144   -0.2409 C.3       1 <0>         0.0060
      3 C2         -0.8204   -0.5119    0.8828 C.3       1 <0>        -0.0127
      4 C3          0.6177   -0.2960    0.4767 C.ar      1 <0>        -0.0459
      5 C4         -1.7718    1.2390   -0.7114 C.3       1 <0>        -0.0496
      6 C5          1.3334   -1.3480   -0.0727 C.ar      1 <0>        -0.0585
      7 C6          1.1956    0.9501    0.6602 C.ar      1 <0>        -0.0585
      8 C7          2.6619   -1.1487   -0.4481 C.ar      1 <0>        -0.0615
      9 C8          2.5242    1.1494    0.2845 C.ar      1 <0>        -0.0615
     10 C9          3.2572    0.0999   -0.2697 C.ar      1 <0>        -0.0617
     11 H1         -1.6264   -0.8670   -1.0987 H         1 <0>         0.0459
     12 H2         -0.9389   -1.5500    1.2236 H         1 <0>         0.0328
     13 H3         -1.0406    0.1063    1.7647 H         1 <0>         0.0328
     14 H4         -0.8290    1.4581   -1.2218 H         1 <0>         0.0245
     15 H5         -1.8863    1.9393    0.1234 H         1 <0>         0.0245
     16 H6         -2.5701    1.4480   -1.4334 H         1 <0>         0.0245
     17 H7          0.8777   -2.3233   -0.2178 H         1 <0>         0.0620
     18 H8          0.6365    1.7734    1.0952 H         1 <0>         0.0620
     19 H9         -3.2618   -1.4703    0.5084 H         1 <0>         0.1185
     20 H10        -3.8535   -0.3536   -0.5235 H         1 <0>         0.1185
     21 H11         3.2326   -1.9656   -0.8801 H         1 <0>         0.0618
     22 H12         2.9882    2.1213    0.4245 H         1 <0>         0.0618
     23 H13         4.2916    0.2550   -0.5621 H         1 <0>         0.0618
@<TRIPOS>BOND
     1    1    2 1
     2    1   19 1
     3    1   20 1
     4    2    3 1
     5    2    5 1
     6    2   11 1
     7    3    4 1
     8    3   12 1
     9    3   13 1
    10    4    6 ar
    11    4    7 ar
    12    5   14 1
    13    5   15 1
    14    5   16 1
    15    6    8 ar
    16    6   17 1
    17    7    9 ar
    18    7   18 1
    19    8   10 ar
    20    8   21 1
    21    9   10 ar
    22    9   22 1
    23   10   23 1
