@<TRIPOS>MOLECULE
DB01115
   43    44     0     0     0
SMALL
USER_CHARGES

@<TRIPOS>ATOM
      1 O1          3.0909    0.8187   -1.4841 O.3       1 <0>        -0.4646
      2 O2         -2.8910   -0.8420   -0.1586 O.3       1 <0>        -0.4646
      3 O3          2.8006    1.7789    0.6023 O.2       1 <0>        -0.2452
      4 O4         -2.1582   -1.3936   -2.2841 O.2       1 <0>        -0.2452
      5 O5         -2.6998    2.6559   -1.9317 O.3       1 <0>        -0.5760
      6 O6         -1.3025    0.9914   -2.2416 O.2       1 <0>         0.0415
      7 N1          1.1191   -2.4153    0.5821 N.pl3     1 <0>        -0.3207
      8 N2         -1.8293    1.8600   -1.5070 N.pl3     1 <0>         0.0799
      9 C1          0.1860    0.0379   -0.4799 C.3       1 <0>         0.0570
     10 C2          1.6337   -0.1864   -0.0253 C.2       1 <0>         0.0654
     11 C3         -0.6528   -1.2437   -0.4595 C.2       1 <0>         0.0654
     12 C4         -0.4623    1.0883    0.3759 C.ar      1 <0>         0.0419
     13 C5          2.0283   -1.3723    0.4918 C.2       1 <0>         0.0157
     14 C6         -0.1733   -2.3851    0.0841 C.2       1 <0>         0.0157
     15 C7         -1.4255    1.9457   -0.1460 C.ar      1 <0>         0.2772
     16 C8         -0.0770    1.1864    1.7093 C.ar      1 <0>        -0.0512
     17 C9          2.5706    0.9288   -0.2380 C.2       1 <0>         0.3373
     18 C10        -1.9761   -1.1758   -1.1005 C.2       1 <0>         0.3373
     19 C11         3.4075   -1.6875    1.0049 C.3       1 <0>        -0.0260
     20 C12        -0.9303   -3.6801    0.2032 C.3       1 <0>        -0.0260
     21 C13        -2.0094    2.9114    0.6738 C.ar      1 <0>         0.0159
     22 C14        -0.6609    2.1522    2.5291 C.ar      1 <0>        -0.0611
     23 C15        -1.6271    3.0147    2.0115 C.ar      1 <0>        -0.0553
     24 C16         4.0284    1.8392   -1.8427 C.3       1 <0>         0.0820
     25 C17        -4.2379   -0.7363   -0.6313 C.3       1 <0>         0.0820
     26 H1          0.4011    0.3288   -1.5082 H         1 <0>         0.0454
     27 H2          1.4465   -3.2880    0.9814 H         1 <0>         0.1516
     28 H3          0.6418    0.5182    2.1725 H         1 <0>         0.0623
     29 H4          3.8451   -2.5111    0.4307 H         1 <0>         0.0290
     30 H5          3.3599   -1.9868    2.0574 H         1 <0>         0.0290
     31 H6          4.0917   -0.8370    0.9367 H         1 <0>         0.0290
     32 H7         -1.0052   -3.9782    1.2545 H         1 <0>         0.0290
     33 H8         -0.4105   -4.4735   -0.3445 H         1 <0>         0.0290
     34 H9         -1.9478   -3.6180   -0.1933 H         1 <0>         0.0290
     35 H10        -2.7659    3.6013    0.3088 H         1 <0>         0.0685
     36 H11        -0.3698    2.2275    3.5726 H         1 <0>         0.0618
     37 H12        -2.0830    3.7651    2.6507 H         1 <0>         0.0620
     38 H13         3.5467    2.8213   -1.8188 H         1 <0>         0.0661
     39 H14         4.3726    1.6417   -2.8614 H         1 <0>         0.0661
     40 H15         4.8907    1.8145   -1.1695 H         1 <0>         0.0661
     41 H16        -4.6056   -1.7219   -0.9318 H         1 <0>         0.0661
     42 H17        -4.3029   -0.0307   -1.4649 H         1 <0>         0.0661
     43 H18        -4.8571   -0.3648    0.1896 H         1 <0>         0.0661
@<TRIPOS>BOND
     1    1   17 1
     2    1   24 1
     3    2   18 1
     4    2   25 1
     5    3   17 2
     6    4   18 2
     7    5    8 1
     8    6    8 2
     9    7   13 1
    10    7   14 1
    11    7   27 1
    12    8   15 1
    13    9   10 1
    14    9   11 1
    15    9   12 1
    16    9   26 1
    17   10   13 2
    18   10   17 1
    19   11   14 2
    20   11   18 1
    21   12   15 ar
    22   12   16 ar
    23   13   19 1
    24   14   20 1
    25   15   21 ar
    26   16   22 ar
    27   16   28 1
    28   19   29 1
    29   19   30 1
    30   19   31 1
    31   20   32 1
    32   20   33 1
    33   20   34 1
    34   21   23 ar
    35   21   35 1
    36   22   23 ar
    37   22   36 1
    38   23   37 1
    39   24   38 1
    40   24   39 1
    41   24   40 1
    42   25   41 1
    43   25   42 1
    44   25   43 1
