@<TRIPOS>MOLECULE
DB01120
   43    45     0     0     0
SMALL
USER_CHARGES

@<TRIPOS>ATOM
      1 S1          2.5486   -2.5253    0.9001 S.o2      1 <0>         0.0756
      2 O1          0.0614   -0.7541    1.4689 O.2       1 <0>        -0.2499
      3 O2          2.2280   -2.4523    2.3126 O.2       1 <0>        -0.1499
      4 O3          3.2147   -3.6932    0.3568 O.2       1 <0>        -0.1499
      5 N1         -2.0806   -0.5624   -0.2716 N.3       1 <0>        -0.2252
      6 N2         -0.9624   -1.3251   -0.5262 N.am      1 <0>        -0.2309
      7 N3          1.1418   -2.1981   -0.0143 N.am      1 <0>        -0.1683
      8 C1         -4.4263   -0.3610   -0.4013 C.3       1 <0>        -0.0226
      9 C2         -3.7753    0.8359   -1.1268 C.3       1 <0>        -0.0226
     10 C3         -4.9561    0.1949    0.9259 C.3       1 <0>        -0.0487
     11 C4         -3.9538    2.0373   -0.1907 C.3       1 <0>        -0.0487
     12 C5         -3.2945   -1.3796   -0.2420 C.3       1 <0>         0.0199
     13 C6         -2.3168    0.4181   -1.3322 C.3       1 <0>         0.0199
     14 C7         -4.1368    1.4452    1.1962 C.3       1 <0>        -0.0525
     15 C8          0.0579   -1.3602    0.4011 C.2       1 <0>         0.3327
     16 C9          3.5331   -1.1064    0.5249 C.ar      1 <0>         0.1086
     17 C10         3.4306    0.0179    1.3262 C.ar      1 <0>        -0.0348
     18 C11         4.3883   -1.1446   -0.5629 C.ar      1 <0>        -0.0348
     19 C12         5.0742    1.1173   -0.0619 C.ar      1 <0>        -0.0503
     20 C13         4.2071    1.1383    1.0304 C.ar      1 <0>        -0.0570
     21 C14         5.1649   -0.0242   -0.8586 C.ar      1 <0>        -0.0570
     22 C15         5.9049    2.3148   -0.3780 C.3       1 <0>        -0.0397
     23 H1         -5.2460   -0.7993   -0.9815 H         1 <0>         0.0317
     24 H2         -4.2471    1.0380   -2.0949 H         1 <0>         0.0317
     25 H3         -4.9020   -0.5233    1.7495 H         1 <0>         0.0268
     26 H4         -6.0098    0.4752    0.8025 H         1 <0>         0.0268
     27 H5         -4.8646    2.5801   -0.4730 H         1 <0>         0.0268
     28 H6         -3.1224    2.7474   -0.2328 H         1 <0>         0.0268
     29 H7         -3.3752   -1.9601    0.6830 H         1 <0>         0.0446
     30 H8         -3.3206   -2.0814   -1.0870 H         1 <0>         0.0446
     31 H9         -2.2101   -0.0387   -2.3258 H         1 <0>         0.0446
     32 H10        -1.6224    1.2626   -1.2713 H         1 <0>         0.0446
     33 H11        -4.6472    2.1345    1.8754 H         1 <0>         0.0265
     34 H12        -3.1691    1.1881    1.6406 H         1 <0>         0.0265
     35 H13        -0.9099   -1.8502   -1.3934 H         1 <0>         0.1708
     36 H14         1.0432   -2.6941   -0.9093 H         1 <0>         0.1782
     37 H15         2.7595    0.0574    2.1785 H         1 <0>         0.0637
     38 H16         4.4673   -2.0216   -1.1980 H         1 <0>         0.0637
     39 H17         4.1282    2.0213    1.6590 H         1 <0>         0.0621
     40 H18         5.8371   -0.0527   -1.7121 H         1 <0>         0.0621
     41 H19         6.8662    2.2527    0.1415 H         1 <0>         0.0278
     42 H20         6.0917    2.3931   -1.4545 H         1 <0>         0.0278
     43 H21         5.4000    3.2378   -0.0730 H         1 <0>         0.0278
@<TRIPOS>BOND
     1    1    3 2
     2    1    4 2
     3    1    7 1
     4    1   16 1
     5    2   15 2
     6    5    6 1
     7    5   12 1
     8    5   13 1
     9    6   15 am
    10    6   35 1
    11    7   15 am
    12    7   36 1
    13    8    9 1
    14    8   10 1
    15    8   12 1
    16    8   23 1
    17    9   11 1
    18    9   13 1
    19    9   24 1
    20   10   14 1
    21   10   25 1
    22   10   26 1
    23   11   14 1
    24   11   27 1
    25   11   28 1
    26   12   29 1
    27   12   30 1
    28   13   31 1
    29   13   32 1
    30   14   33 1
    31   14   34 1
    32   16   17 ar
    33   16   18 ar
    34   17   20 ar
    35   17   37 1
    36   18   21 ar
    37   18   38 1
    38   19   20 ar
    39   19   21 ar
    40   19   22 1
    41   20   39 1
    42   21   40 1
    43   22   41 1
    44   22   42 1
    45   22   43 1
