@<TRIPOS>MOLECULE
DB01234
   57    60     0     0     0
SMALL
USER_CHARGES

@<TRIPOS>ATOM
      1 F1         -1.4500   -0.1451    1.5634 F         1 <0>        -0.2377
      2 O1          2.8952    0.0245    1.7641 O.3       1 <0>        -0.3802
      3 O2         -0.7004   -2.2149   -1.2780 O.3       1 <0>        -0.3886
      4 O3          5.0038   -0.2001   -0.7392 O.2       1 <0>        -0.2919
      5 O4          5.3505   -2.6451    0.4863 O.3       1 <0>        -0.3874
      6 O5         -6.2653   -0.0046    2.3290 O.2       1 <0>        -0.2879
      7 C1          1.5491   -0.3089   -0.2569 C.3       1 <0>         0.0096
      8 C2          0.6994    0.9389    0.0693 C.3       1 <0>        -0.0263
      9 C3         -0.7434    0.8503   -0.4519 C.3       1 <0>         0.0003
     10 C4         -1.4486   -0.3892    0.1987 C.3       1 <0>         0.1526
     11 C5          2.9100    0.1493    0.3462 C.3       1 <0>         0.1340
     12 C6          1.5758    2.1054   -0.3859 C.3       1 <0>        -0.0436
     13 C7          0.8767   -1.5160    0.4291 C.3       1 <0>        -0.0151
     14 C8          3.0283    1.6370   -0.1036 C.3       1 <0>        -0.0071
     15 C9         -0.6085   -1.6916    0.0378 C.3       1 <0>         0.0910
     16 C10        -2.9699   -0.4901   -0.2150 C.3       1 <0>         0.0443
     17 C11        -1.5061    2.1514   -0.1403 C.3       1 <0>        -0.0432
     18 C12         1.7034   -0.5662   -1.7817 C.3       1 <0>        -0.0562
     19 C13        -2.9758    2.0683   -0.5349 C.3       1 <0>        -0.0301
     20 C14        -3.6214    0.8623    0.0978 C.2       1 <0>        -0.0532
     21 C15         4.0768   -0.6864   -0.0932 C.2       1 <0>         0.1904
     22 C16         3.7334    2.5612    0.8849 C.3       1 <0>        -0.0594
     23 C17        -3.1971   -0.7930   -1.7140 C.3       1 <0>        -0.0493
     24 C18        -3.6487   -1.6170    0.5508 C.2       1 <0>        -0.0674
     25 C19        -4.6745    1.0116    0.9166 C.2       1 <0>        -0.0148
     26 C20         4.0422   -2.1471    0.3027 C.3       1 <0>         0.1052
     27 C21        -4.6966   -1.4746    1.3680 C.2       1 <0>        -0.0180
     28 C22        -5.2925   -0.1455    1.5956 C.2       1 <0>         0.1787
     29 H1          0.6255    1.0330    1.1652 H         1 <0>         0.0311
     30 H2         -0.7300    0.7353   -1.5403 H         1 <0>         0.0336
     31 H3          1.4444    2.2989   -1.4571 H         1 <0>         0.0272
     32 H4          1.3220    3.0283    0.1463 H         1 <0>         0.0272
     33 H5          0.8890   -1.4074    1.5186 H         1 <0>         0.0297
     34 H6          1.4049   -2.4420    0.1841 H         1 <0>         0.0297
     35 H7          3.5701    1.7134   -1.0553 H         1 <0>         0.0330
     36 H8         -1.0036   -2.4543    0.7205 H         1 <0>         0.0626
     37 H9         -1.0482    2.9921   -0.6747 H         1 <0>         0.0272
     38 H10        -1.4303    2.3810    0.9310 H         1 <0>         0.0272
     39 H11         2.3098    0.1967   -2.2799 H         1 <0>         0.0236
     40 H12         2.1875   -1.5300   -1.9708 H         1 <0>         0.0236
     41 H13         0.7491   -0.5841   -2.3116 H         1 <0>         0.0236
     42 H14        -3.0710    2.0116   -1.6254 H         1 <0>         0.0310
     43 H15        -3.4767    2.9961   -0.2327 H         1 <0>         0.0310
     44 H16         4.7474    2.2052    1.0927 H         1 <0>         0.0233
     45 H17         3.8098    3.5742    0.4755 H         1 <0>         0.0233
     46 H18         3.1910    2.6263    1.8338 H         1 <0>         0.0233
     47 H19        -2.5619   -0.1880   -2.3677 H         1 <0>         0.0242
     48 H20        -3.0186   -1.8435   -1.9646 H         1 <0>         0.0242
     49 H21        -4.2370   -0.5896   -2.0031 H         1 <0>         0.0242
     50 H22         2.6642   -0.8709    2.0456 H         1 <0>         0.2108
     51 H23        -3.2679   -2.6253    0.4040 H         1 <0>         0.0583
     52 H24        -1.2866   -2.9899   -1.2470 H         1 <0>         0.2099
     53 H25        -5.1036    1.9862    1.1239 H         1 <0>         0.0656
     54 H26         3.5812   -2.7172   -0.5075 H         1 <0>         0.0637
     55 H27         3.4996   -2.3467    1.2240 H         1 <0>         0.0637
     56 H28        -5.1387   -2.3261    1.8719 H         1 <0>         0.0653
     57 H29         5.7324   -2.1880    1.2550 H         1 <0>         0.2100
@<TRIPOS>BOND
     1    1   10 1
     2    2   11 1
     3    2   50 1
     4    3   15 1
     5    3   52 1
     6    4   21 2
     7    5   26 1
     8    5   57 1
     9    6   28 2
    10    7    8 1
    11    7   11 1
    12    7   13 1
    13    7   18 1
    14    8    9 1
    15    8   12 1
    16    8   29 1
    17    9   10 1
    18    9   17 1
    19    9   30 1
    20   10   15 1
    21   10   16 1
    22   11   14 1
    23   11   21 1
    24   12   14 1
    25   12   31 1
    26   12   32 1
    27   13   15 1
    28   13   33 1
    29   13   34 1
    30   14   22 1
    31   14   35 1
    32   15   36 1
    33   16   20 1
    34   16   23 1
    35   16   24 1
    36   17   19 1
    37   17   37 1
    38   17   38 1
    39   18   39 1
    40   18   40 1
    41   18   41 1
    42   19   20 1
    43   19   42 1
    44   19   43 1
    45   20   25 2
    46   21   26 1
    47   22   44 1
    48   22   45 1
    49   22   46 1
    50   23   47 1
    51   23   48 1
    52   23   49 1
    53   24   27 2
    54   24   51 1
    55   25   28 1
    56   25   53 1
    57   26   54 1
    58   26   55 1
    59   27   28 1
    60   27   56 1
