@<TRIPOS>MOLECULE
DB01148
   54    57     0     0     0
SMALL
USER_CHARGES

@<TRIPOS>ATOM
      1 O1         -1.1794    1.3744   -0.3263 O.3       1 <0>        -0.4598
      2 O2          2.7127    0.3240   -0.2198 O.3       1 <0>        -0.4535
      3 O3          0.3090   -0.0782   -1.3131 O.2       1 <0>        -0.2448
      4 O4          5.5718    3.0825    0.6669 O.2       1 <0>        -0.2867
      5 N1         -4.6730    0.1706   -0.2974 N.3       1 <0>        -0.2991
      6 C1         -4.4803   -1.1101    0.3974 C.3       1 <0>        -0.0010
      7 C2         -5.9333    0.8097    0.1062 C.3       1 <0>        -0.0010
      8 C3         -5.6305   -2.0748    0.1049 C.3       1 <0>        -0.0402
      9 C4         -7.1310   -0.0924   -0.1960 C.3       1 <0>        -0.0402
     10 C5         -6.9772   -1.4576    0.4644 C.3       1 <0>        -0.0507
     11 C6         -3.5426    1.0642   -0.0456 C.3       1 <0>         0.0332
     12 C7         -2.2526    0.4611   -0.5784 C.3       1 <0>         0.1054
     13 C8          1.0671    2.0020   -0.4283 C.ar      1 <0>         0.1018
     14 C9          0.0654    0.9916   -0.7427 C.2       1 <0>         0.3428
     15 C10         2.3930    1.6540   -0.1678 C.ar      1 <0>         0.1532
     16 C11         3.3272    2.6407    0.1302 C.ar      1 <0>         0.0651
     17 C12         5.0298    0.7890    0.3320 C.2       1 <0>         0.0397
     18 C13         4.0192   -0.0534    0.0376 C.2       1 <0>         0.1421
     19 C14         4.7182    2.2460    0.3994 C.2       1 <0>         0.1960
     20 C15         0.6805    3.3416   -0.3895 C.ar      1 <0>        -0.0441
     21 C16         2.9438    3.9842    0.1707 C.ar      1 <0>        -0.0473
     22 C17         4.1993   -1.5088   -0.0509 C.ar      1 <0>         0.0177
     23 C18         1.6176    4.3310   -0.0906 C.ar      1 <0>        -0.0601
     24 C19         6.4606    0.4161    0.5933 C.3       1 <0>        -0.0325
     25 C20         4.0284   -2.3037    1.0829 C.ar      1 <0>        -0.0511
     26 C21         4.5406   -2.0975   -1.2689 C.ar      1 <0>        -0.0511
     27 C22         4.1989   -3.6857    0.9990 C.ar      1 <0>        -0.0611
     28 C23         4.7110   -3.4794   -1.3531 C.ar      1 <0>        -0.0611
     29 C24         4.5401   -4.2734   -0.2190 C.ar      1 <0>        -0.0617
     30 H1         -4.3882   -0.9607    1.4811 H         1 <0>         0.0427
     31 H2         -3.5821   -1.6313    0.0567 H         1 <0>         0.0427
     32 H3         -6.0670    1.7487   -0.4445 H         1 <0>         0.0427
     33 H4         -5.9204    1.0578    1.1759 H         1 <0>         0.0427
     34 H5         -5.4885   -3.0034    0.6693 H         1 <0>         0.0278
     35 H6         -5.6247   -2.3433   -0.9594 H         1 <0>         0.0278
     36 H7         -7.2298   -0.2204   -1.2815 H         1 <0>         0.0278
     37 H8         -8.0525    0.3860    0.1545 H         1 <0>         0.0278
     38 H9         -7.7910   -2.1209    0.1515 H         1 <0>         0.0266
     39 H10        -7.0505   -1.3478    1.5533 H         1 <0>         0.0266
     40 H11        -3.4341    1.2945    1.0228 H         1 <0>         0.0460
     41 H12        -3.7013    2.0275   -0.5476 H         1 <0>         0.0460
     42 H13        -2.3270    0.2822   -1.6577 H         1 <0>         0.0710
     43 H14        -1.9859   -0.4695   -0.0716 H         1 <0>         0.0710
     44 H15        -0.3400    3.6505   -0.6012 H         1 <0>         0.0627
     45 H16         3.6586    4.7693    0.4005 H         1 <0>         0.0626
     46 H17         1.3151    5.3740   -0.0640 H         1 <0>         0.0618
     47 H18         6.7567    0.7345    1.5986 H         1 <0>         0.0280
     48 H19         7.1183    0.9063   -0.1325 H         1 <0>         0.0280
     49 H20         6.6466   -0.6591    0.5253 H         1 <0>         0.0280
     50 H21         3.7617   -1.8602    2.0393 H         1 <0>         0.0625
     51 H22         4.6767   -1.4919   -2.1617 H         1 <0>         0.0625
     52 H23         4.0657   -4.3041    1.8818 H         1 <0>         0.0618
     53 H24         4.9766   -3.9372   -2.3015 H         1 <0>         0.0618
     54 H25         4.6727   -5.3494   -0.2846 H         1 <0>         0.0618
@<TRIPOS>BOND
     1    1   12 1
     2    1   14 1
     3    2   15 1
     4    2   18 1
     5    3   14 2
     6    4   19 2
     7    5    6 1
     8    5    7 1
     9    5   11 1
    10    6    8 1
    11    6   30 1
    12    6   31 1
    13    7    9 1
    14    7   32 1
    15    7   33 1
    16    8   10 1
    17    8   34 1
    18    8   35 1
    19    9   10 1
    20    9   36 1
    21    9   37 1
    22   10   38 1
    23   10   39 1
    24   11   12 1
    25   11   40 1
    26   11   41 1
    27   12   42 1
    28   12   43 1
    29   13   14 1
    30   13   15 ar
    31   13   20 ar
    32   15   16 ar
    33   16   19 1
    34   16   21 ar
    35   17   18 2
    36   17   19 1
    37   17   24 1
    38   18   22 1
    39   20   23 ar
    40   20   44 1
    41   21   23 ar
    42   21   45 1
    43   22   25 ar
    44   22   26 ar
    45   23   46 1
    46   24   47 1
    47   24   48 1
    48   24   49 1
    49   25   27 ar
    50   25   50 1
    51   26   28 ar
    52   26   51 1
    53   27   29 ar
    54   27   52 1
    55   28   29 ar
    56   28   53 1
    57   29   54 1
