@<TRIPOS>MOLECULE
DB01063
   58    61     0     0     0
SMALL
USER_CHARGES

@<TRIPOS>ATOM
      1 S1         -3.4027    1.2663    2.3989 S.3       1 <0>        -0.0857
      2 O1          6.8484   -0.2492    1.0378 O.3       1 <0>        -0.3937
      3 O2          1.5562    4.8100   -0.4956 O.2       1 <0>        -0.2924
      4 N1          0.5973   -1.4240    0.0594 N.3       1 <0>        -0.2999
      5 N2          3.4883   -1.4281    0.0901 N.3       1 <0>        -0.2977
      6 N3         -2.4788    0.2748   -0.3992 N.pl3     1 <0>        -0.2983
      7 C1          1.3705   -2.0607   -1.0140 C.3       1 <0>         0.0117
      8 C2          1.3462   -1.4601    1.3214 C.3       1 <0>         0.0117
      9 C3          2.7395   -1.3901   -1.1720 C.3       1 <0>         0.0118
     10 C4          2.7157   -0.7906    1.1633 C.3       1 <0>         0.0118
     11 C5         -0.7068   -2.0663    0.2111 C.3       1 <0>         0.0004
     12 C6         -1.5662   -1.9220   -1.0488 C.3       1 <0>        -0.0240
     13 C7          4.7933   -0.7877   -0.0611 C.3       1 <0>         0.0222
     14 C8         -1.8277   -0.4788   -1.4785 C.3       1 <0>         0.0185
     15 C9          5.5836   -0.8673    1.2352 C.3       1 <0>         0.0569
     16 C10        -1.7984    1.4115    0.1060 C.ar      1 <0>         0.0485
     17 C11        -3.7670   -0.1531    0.0105 C.ar      1 <0>         0.0479
     18 C12        -2.1426    1.9689    1.3533 C.ar      1 <0>         0.0341
     19 C13        -4.3064    0.2493    1.2484 C.ar      1 <0>         0.0341
     20 C14        -0.7765    2.0571   -0.6241 C.ar      1 <0>        -0.0288
     21 C15        -4.5806   -0.9662   -0.8088 C.ar      1 <0>        -0.0393
     22 C16        -1.4693    3.1009    1.8464 C.ar      1 <0>        -0.0455
     23 C17        -0.1139    3.1846   -0.1315 C.ar      1 <0>         0.0189
     24 C18        -5.5876   -0.1721    1.6466 C.ar      1 <0>        -0.0462
     25 C19        -0.4585    3.7051    1.1065 C.ar      1 <0>        -0.0501
     26 C20        -5.8553   -1.3779   -0.4105 C.ar      1 <0>        -0.0599
     27 C21        -6.3579   -0.9833    0.8200 C.ar      1 <0>        -0.0606
     28 C22         0.9432    3.8075   -0.9128 C.2       1 <0>         0.1602
     29 C23         1.3276    3.2407   -2.2752 C.3       1 <0>        -0.0014
     30 H1          1.5044   -3.1336   -0.8205 H         1 <0>         0.0439
     31 H2          0.8734   -1.9600   -1.9833 H         1 <0>         0.0439
     32 H3          0.7881   -0.9218    2.0976 H         1 <0>         0.0439
     33 H4          1.4770   -2.4937    1.6696 H         1 <0>         0.0439
     34 H5          3.2980   -1.9246   -1.9501 H         1 <0>         0.0439
     35 H6          2.6056   -0.3556   -1.5174 H         1 <0>         0.0439
     36 H7          2.5855    0.2835    0.9738 H         1 <0>         0.0439
     37 H8          3.2016   -0.9036    2.1365 H         1 <0>         0.0439
     38 H9         -0.5907   -3.1340    0.4411 H         1 <0>         0.0427
     39 H10        -1.2424   -1.6265    1.0610 H         1 <0>         0.0427
     40 H11        -1.1283   -2.4696   -1.8912 H         1 <0>         0.0293
     41 H12        -2.5001   -2.4590   -0.8552 H         1 <0>         0.0293
     42 H13         4.6981    0.2617   -0.3715 H         1 <0>         0.0449
     43 H14         5.3697   -1.2863   -0.8510 H         1 <0>         0.0449
     44 H15        -0.8559   -0.0986   -1.7932 H         1 <0>         0.0468
     45 H16        -2.4309   -0.4447   -2.3937 H         1 <0>         0.0468
     46 H17         5.7479   -1.9067    1.5384 H         1 <0>         0.0570
     47 H18         5.1176   -0.3207    2.0576 H         1 <0>         0.0570
     48 H19        -0.5329    1.7300   -1.6262 H         1 <0>         0.0643
     49 H20        -4.2636   -1.2868   -1.7973 H         1 <0>         0.0636
     50 H21        -1.7266    3.5244    2.8153 H         1 <0>         0.0629
     51 H22        -6.0001    0.1288    2.6075 H         1 <0>         0.0629
     52 H23         7.3398   -0.3288    1.8732 H         1 <0>         0.2095
     53 H24         0.0408    4.5781    1.5173 H         1 <0>         0.0625
     54 H25        -6.4533   -2.0019   -1.0682 H         1 <0>         0.0618
     55 H26        -7.3472   -1.3009    1.1346 H         1 <0>         0.0618
     56 H27         0.4855    3.3151   -2.9679 H         1 <0>         0.0309
     57 H28         1.6710    2.2077   -2.1742 H         1 <0>         0.0309
     58 H29         2.1546    3.8292   -2.6854 H         1 <0>         0.0309
@<TRIPOS>BOND
     1    1   18 1
     2    1   19 1
     3    2   15 1
     4    2   52 1
     5    3   28 2
     6    4    7 1
     7    4    8 1
     8    4   11 1
     9    5    9 1
    10    5   10 1
    11    5   13 1
    12    6   14 1
    13    6   16 1
    14    6   17 1
    15    7    9 1
    16    7   30 1
    17    7   31 1
    18    8   10 1
    19    8   32 1
    20    8   33 1
    21    9   34 1
    22    9   35 1
    23   10   36 1
    24   10   37 1
    25   11   12 1
    26   11   38 1
    27   11   39 1
    28   12   14 1
    29   12   40 1
    30   12   41 1
    31   13   15 1
    32   13   42 1
    33   13   43 1
    34   14   44 1
    35   14   45 1
    36   15   46 1
    37   15   47 1
    38   16   18 ar
    39   16   20 ar
    40   17   19 ar
    41   17   21 ar
    42   18   22 ar
    43   19   24 ar
    44   20   23 ar
    45   20   48 1
    46   21   26 ar
    47   21   49 1
    48   22   25 ar
    49   22   50 1
    50   23   25 ar
    51   23   28 1
    52   24   27 ar
    53   24   51 1
    54   25   53 1
    55   26   27 ar
    56   26   54 1
    57   27   55 1
    58   28   29 1
    59   29   56 1
    60   29   57 1
    61   29   58 1
