@<TRIPOS>MOLECULE
DB01188
   32    33     0     0     0
SMALL
USER_CHARGES

@<TRIPOS>ATOM
      1 O1         -0.7002    2.8706   -0.3125 O.3       1 <0>        -0.4234
      2 O2         -3.4376    2.8783   -0.2253 O.2       1 <0>        -0.2647
      3 N1         -1.4470    1.6908   -0.1713 N.am      1 <0>        -0.1510
      4 C1          0.7604    0.5622   -0.0637 C.3       1 <0>         0.0029
      5 C2          1.3288   -0.1959   -1.2719 C.3       1 <0>        -0.0447
      6 C3          1.3256   -0.0012    1.2479 C.3       1 <0>        -0.0447
      7 C4          2.8562   -0.2026   -1.2669 C.3       1 <0>        -0.0525
      8 C5          2.8530   -0.0088    1.2475 C.3       1 <0>        -0.0525
      9 C6          3.4120   -0.7560    0.0411 C.3       1 <0>        -0.0530
     10 C7         -0.7383    0.5160   -0.0624 C.2       1 <0>         0.0649
     11 C8         -1.4267   -0.6357    0.0257 C.2       1 <0>        -0.0356
     12 C9         -2.8794   -0.6312    0.0139 C.2       1 <0>        -0.0435
     13 C10        -2.8168    1.8209   -0.1551 C.2       1 <0>         0.2836
     14 C11        -3.5570    0.5265   -0.0708 C.2       1 <0>         0.0088
     15 C12        -3.5620   -1.9616    0.1025 C.3       1 <0>        -0.0395
     16 H1          1.1314    1.5907   -0.1408 H         1 <0>         0.0364
     17 H2          0.9761    0.2638   -2.2039 H         1 <0>         0.0272
     18 H3          0.9812   -1.2368   -1.2834 H         1 <0>         0.0272
     19 H4          0.9777   -1.0279    1.4184 H         1 <0>         0.0272
     20 H5          0.9708    0.5963    2.0971 H         1 <0>         0.0272
     21 H6          3.2261    0.8190   -1.4182 H         1 <0>         0.0265
     22 H7          3.2246   -0.8023   -2.1069 H         1 <0>         0.0265
     23 H8          3.2192   -0.4727    2.1703 H         1 <0>         0.0265
     24 H9          3.2230    1.0239    1.2414 H         1 <0>         0.0265
     25 H10         3.1612   -1.8207    0.1228 H         1 <0>         0.0265
     26 H11         4.5054   -0.6847    0.0369 H         1 <0>         0.0265
     27 H12        -0.9272   -1.5956    0.1068 H         1 <0>         0.0639
     28 H13        -4.6404    0.5667   -0.0790 H         1 <0>         0.0675
     29 H14        -3.2891   -2.4737    1.0315 H         1 <0>         0.0278
     30 H15        -3.2763   -2.5981   -0.7419 H         1 <0>         0.0278
     31 H16        -4.6528   -1.8624    0.0875 H         1 <0>         0.0278
     32 H17        -0.7818    3.2422    0.5826 H         1 <0>         0.3259
@<TRIPOS>BOND
     1    1    3 1
     2    1   32 1
     3    2   13 2
     4    3   10 1
     5    3   13 am
     6    4    5 1
     7    4    6 1
     8    4   10 1
     9    4   16 1
    10    5    7 1
    11    5   17 1
    12    5   18 1
    13    6    8 1
    14    6   19 1
    15    6   20 1
    16    7    9 1
    17    7   21 1
    18    7   22 1
    19    8    9 1
    20    8   23 1
    21    8   24 1
    22    9   25 1
    23    9   26 1
    24   10   11 2
    25   11   12 1
    26   11   27 1
    27   12   14 2
    28   12   15 1
    29   13   14 1
    30   14   28 1
    31   15   29 1
    32   15   30 1
    33   15   31 1
