@<TRIPOS>MOLECULE
DB01221
   32    33     0     0     0
SMALL
USER_CHARGES

@<TRIPOS>ATOM
      1 Cl1         1.6076   -0.8309   -2.6711 Cl        1 <0>        -0.0832
      2 O1         -1.3045   -0.7020   -2.5940 O.2       1 <0>        -0.2951
      3 N1         -0.1930   -2.1107   -0.5800 N.3       1 <0>        -0.3039
      4 C1         -0.4102   -0.6764   -0.3205 C.3       1 <0>         0.1045
      5 C2         -1.3641   -0.5953    0.8997 C.3       1 <0>        -0.0235
      6 C3         -1.9162    0.8134    1.1401 C.3       1 <0>        -0.0503
      7 C4         -2.6704    1.3151   -0.0876 C.3       1 <0>        -0.0462
      8 C5         -1.2039   -0.1142   -1.5163 C.2       1 <0>         0.1577
      9 C6         -1.8056    1.2675   -1.3368 C.3       1 <0>         0.0080
     10 C7          0.9444    0.0268   -0.1705 C.ar      1 <0>        -0.0019
     11 C8          1.9003   -0.0008   -1.1863 C.ar      1 <0>         0.0463
     12 C9          1.2106    0.7049    1.0192 C.ar      1 <0>        -0.0550
     13 C10         0.5463   -2.7248    0.5117 C.3       1 <0>        -0.0146
     14 C11         3.1220    0.6493   -1.0122 C.ar      1 <0>        -0.0431
     15 C12         2.4324    1.3551    1.1932 C.ar      1 <0>        -0.0613
     16 C13         3.3881    1.3271    0.1776 C.ar      1 <0>        -0.0604
     17 H1         -0.8945   -0.9282    1.8322 H         1 <0>         0.0291
     18 H2         -2.2283   -1.2589    0.7441 H         1 <0>         0.0291
     19 H3         -1.1661    1.5578    1.4077 H         1 <0>         0.0266
     20 H4         -2.6122    0.7760    1.9874 H         1 <0>         0.0266
     21 H5         -3.0226    2.3386    0.0833 H         1 <0>         0.0269
     22 H6         -3.5615    0.6924   -0.2390 H         1 <0>         0.0269
     23 H7         -0.9912    1.9975   -1.2820 H         1 <0>         0.0342
     24 H8         -2.4111    1.5097   -2.2168 H         1 <0>         0.0342
     25 H9         -1.0865   -2.5893   -0.6928 H         1 <0>         0.1228
     26 H10         0.5629    0.6970    1.8844 H         1 <0>         0.0621
     27 H11         0.7526   -3.7634    0.2269 H         1 <0>         0.0388
     28 H12        -0.0197   -2.7851    1.4450 H         1 <0>         0.0388
     29 H13         1.5262   -2.2796    0.7046 H         1 <0>         0.0388
     30 H14         3.8780    0.6359   -1.7934 H         1 <0>         0.0632
     31 H15         2.6489    1.8660    2.1269 H         1 <0>         0.0618
     32 H16         4.3413    1.8292    0.3152 H         1 <0>         0.0618
@<TRIPOS>BOND
     1    1   11 1
     2    2    8 2
     3    3    4 1
     4    3   13 1
     5    3   25 1
     6    4    5 1
     7    4    8 1
     8    4   10 1
     9    5    6 1
    10    5   17 1
    11    5   18 1
    12    6    7 1
    13    6   19 1
    14    6   20 1
    15    7    9 1
    16    7   21 1
    17    7   22 1
    18    8    9 1
    19    9   23 1
    20    9   24 1
    21   10   11 ar
    22   10   12 ar
    23   11   14 ar
    24   12   15 ar
    25   12   26 1
    26   13   27 1
    27   13   28 1
    28   13   29 1
    29   14   16 ar
    30   14   30 1
    31   15   16 ar
    32   15   31 1
    33   16   32 1
