@<TRIPOS>MOLECULE
DB01180
   88    93     0     0     0
SMALL
USER_CHARGES

@<TRIPOS>ATOM
      1 O1         -0.3241    3.0316   -1.3631 O.3       1 <0>        -0.3753
      2 O2         -1.7720    0.6585   -0.7468 O.3       1 <0>        -0.4556
      3 O3          3.8129    2.9942   -1.0127 O.3       1 <0>        -0.4677
      4 O4          2.0069    3.8595    0.1390 O.2       1 <0>        -0.2504
      5 O5         -2.5981   -0.3556   -2.6512 O.2       1 <0>        -0.2456
      6 O6         10.5462   -0.1100    0.4311 O.3       1 <0>        -0.4950
      7 O7         -9.7200   -1.8790   -1.0537 O.3       1 <0>        -0.4913
      8 O8         -8.2263    1.5467    1.9413 O.3       1 <0>        -0.4913
      9 O9        -10.2302   -0.1398    1.0405 O.3       1 <0>        -0.4885
     10 N1          2.5718   -2.1449    0.4863 N.3       1 <0>        -0.2934
     11 N2          5.6912   -0.1102    1.0220 N.pl3     1 <0>        -0.3564
     12 C1          2.4802    0.5304   -0.7777 C.3       1 <0>        -0.0197
     13 C2          1.7078   -0.6725   -1.3534 C.3       1 <0>        -0.0211
     14 C3          2.6680    0.3518    0.7422 C.3       1 <0>        -0.0278
     15 C4          1.7766    1.8472   -1.1693 C.3       1 <0>         0.0891
     16 C5          3.2867   -1.0039    1.1227 C.3       1 <0>         0.0512
     17 C6          2.4017   -1.9868   -0.9664 C.3       1 <0>         0.0028
     18 C7          0.2314   -0.6591   -0.9283 C.3       1 <0>        -0.0089
     19 C8          0.2946    1.8819   -0.7752 C.3       1 <0>         0.1083
     20 C9         -0.4552    0.6536   -1.2990 C.3       1 <0>         0.1304
     21 C10         4.7669   -1.1073    0.8875 C.cat     1 <0>         0.0376
     22 C11         3.2296   -3.4346    0.8126 C.3       1 <0>         0.0036
     23 C12         5.4335   -2.2713    0.5614 C.2       1 <0>        -0.0164
     24 C13         4.7029   -3.5529    0.3483 C.3       1 <0>        -0.0125
     25 C14         2.5159    3.0214   -0.5928 C.2       1 <0>         0.3128
     26 C15         6.8173   -1.9641    0.4623 C.ar      1 <0>         0.0034
     27 C16         6.9514   -0.6028    0.7551 C.ar      1 <0>         0.0505
     28 C17        -1.5254    3.3661   -0.6895 C.3       1 <0>         0.0370
     29 C18         7.9737   -2.7074    0.1521 C.ar      1 <0>        -0.0489
     30 C19        -2.7429    0.1211   -1.5367 C.2       1 <0>         0.3323
     31 C20         8.1897    0.0494    0.7541 C.ar      1 <0>         0.0040
     32 C21         9.2177   -2.0664    0.1463 C.ar      1 <0>        -0.0193
     33 C22         9.3216   -0.7091    0.4428 C.ar      1 <0>         0.1221
     34 C23         4.6364    4.0627   -0.5351 C.3       1 <0>         0.0817
     35 C24        -4.0253    0.2162   -0.8030 C.2       1 <0>         0.0231
     36 C25        -5.1475   -0.2474   -1.3714 C.2       1 <0>        -0.0476
     37 C26        10.5894    1.2806    0.7427 C.3       1 <0>         0.0788
     38 C27        -6.4786   -0.2190   -0.7399 C.ar      1 <0>        -0.0177
     39 C28        -6.7320    0.6585    0.3144 C.ar      1 <0>        -0.0089
     40 C29        -7.4855   -1.0697   -1.1963 C.ar      1 <0>        -0.0089
     41 C30        -8.7456   -1.0430   -0.5986 C.ar      1 <0>         0.1657
     42 C31        -7.9921    0.6853    0.9121 C.ar      1 <0>         0.1657
     43 C32        -8.9987   -0.1654    0.4557 C.ar      1 <0>         0.2035
     44 C33        -9.8094   -3.1641   -0.4416 C.3       1 <0>         0.0790
     45 C34        -7.9632    1.0687    3.2590 C.3       1 <0>         0.0790
     46 C35       -11.1892    0.7601    0.4899 C.3       1 <0>         0.0791
     47 H1          3.4799    0.5262   -1.2343 H         1 <0>         0.0313
     48 H2          1.7340   -0.5999   -2.4500 H         1 <0>         0.0317
     49 H3          3.2750    1.1688    1.1483 H         1 <0>         0.0287
     50 H4          1.6971    0.4328    1.2463 H         1 <0>         0.0287
     51 H5          1.8306    1.9717   -2.2611 H         1 <0>         0.0443
     52 H6          3.1472   -1.1079    2.2086 H         1 <0>         0.0527
     53 H7          3.3655   -2.0267   -1.4887 H         1 <0>         0.0429
     54 H8          1.8053   -2.8233   -1.3526 H         1 <0>         0.0429
     55 H9         -0.2966   -1.4934   -1.4077 H         1 <0>         0.0305
     56 H10         0.1212   -0.8369    0.1487 H         1 <0>         0.0305
     57 H11         0.2126    1.9428    0.3184 H         1 <0>         0.0641
     58 H12        -0.5086    0.7407   -2.3936 H         1 <0>         0.0760
     59 H13         2.6482   -4.2691    0.4016 H         1 <0>         0.0430
     60 H14         3.1918   -3.5640    1.9030 H         1 <0>         0.0430
     61 H15         5.1926   -4.3652    0.8970 H         1 <0>         0.0326
     62 H16         4.7366   -3.8089   -0.7173 H         1 <0>         0.0326
     63 H17         5.4918    0.8474    1.2760 H         1 <0>         0.1656
     64 H18        -2.3863    2.9448   -1.2133 H         1 <0>         0.0524
     65 H19        -1.5342    3.0943    0.3709 H         1 <0>         0.0524
     66 H20        -1.6364    4.4539   -0.7460 H         1 <0>         0.0524
     67 H21         7.9083   -3.7664   -0.0809 H         1 <0>         0.0625
     68 H22         8.2064    1.1054    0.9930 H         1 <0>         0.0675
     69 H23        10.1090   -2.6413   -0.0933 H         1 <0>         0.0654
     70 H24         4.2455    5.0253   -0.8786 H         1 <0>         0.0661
     71 H25         4.6945    4.0355    0.5572 H         1 <0>         0.0661
     72 H26         5.6413    3.9255   -0.9430 H         1 <0>         0.0661
     73 H27        -3.9935    0.6479    0.1906 H         1 <0>         0.0689
     74 H28        -5.1144   -0.6945   -2.3622 H         1 <0>         0.0626
     75 H29        10.0406    1.8766    0.0056 H         1 <0>         0.0660
     76 H30        10.2551    1.4752    1.7676 H         1 <0>         0.0660
     77 H31        11.6378    1.5918    0.6861 H         1 <0>         0.0660
     78 H32        -5.9803    1.3507    0.6839 H         1 <0>         0.0661
     79 H33        -7.2986   -1.7583   -2.0174 H         1 <0>         0.0661
     80 H34        -8.8859   -3.7297   -0.6011 H         1 <0>         0.0660
     81 H35       -10.0110   -3.0677    0.6298 H         1 <0>         0.0660
     82 H36       -10.6369   -3.7077   -0.9055 H         1 <0>         0.0660
     83 H37        -8.5864    0.1978    3.4849 H         1 <0>         0.0660
     84 H38        -6.9047    0.8126    3.3695 H         1 <0>         0.0660
     85 H39        -8.2061    1.8655    3.9673 H         1 <0>         0.0660
     86 H40       -12.1162    0.6642    1.0616 H         1 <0>         0.0660
     87 H41       -11.3960    0.5106   -0.5556 H         1 <0>         0.0660
     88 H42       -10.8366    1.7934    0.5665 H         1 <0>         0.0660
@<TRIPOS>BOND
     1    1   19 1
     2    1   28 1
     3    2   20 1
     4    2   30 1
     5    3   25 1
     6    3   34 1
     7    4   25 2
     8    5   30 2
     9    6   33 1
    10    6   37 1
    11    7   41 1
    12    7   44 1
    13    8   42 1
    14    8   45 1
    15    9   43 1
    16    9   46 1
    17   10   16 1
    18   10   17 1
    19   10   22 1
    20   11   21 1
    21   11   27 2
    22   11   63 1
    23   12   13 1
    24   12   14 1
    25   12   15 1
    26   12   47 1
    27   13   17 1
    28   13   18 1
    29   13   48 1
    30   14   16 1
    31   14   49 1
    32   14   50 1
    33   15   19 1
    34   15   25 1
    35   15   51 1
    36   16   21 1
    37   16   52 1
    38   17   53 1
    39   17   54 1
    40   18   20 1
    41   18   55 1
    42   18   56 1
    43   19   20 1
    44   19   57 1
    45   20   58 1
    46   21   23 1
    47   22   24 1
    48   22   59 1
    49   22   60 1
    50   23   24 1
    51   23   26 2
    52   24   61 1
    53   24   62 1
    54   26   27 ar
    55   26   29 ar
    56   27   31 ar
    57   28   64 1
    58   28   65 1
    59   28   66 1
    60   29   32 ar
    61   29   67 1
    62   30   35 1
    63   31   33 ar
    64   31   68 1
    65   32   33 ar
    66   32   69 1
    67   34   70 1
    68   34   71 1
    69   34   72 1
    70   35   36 2
    71   35   73 1
    72   36   38 1
    73   36   74 1
    74   37   75 1
    75   37   76 1
    76   37   77 1
    77   38   39 ar
    78   38   40 ar
    79   39   42 ar
    80   39   78 1
    81   40   41 ar
    82   40   79 1
    83   41   43 ar
    84   42   43 ar
    85   44   80 1
    86   44   81 1
    87   44   82 1
    88   45   83 1
    89   45   84 1
    90   45   85 1
    91   46   86 1
    92   46   87 1
    93   46   88 1
