@<TRIPOS>MOLECULE
DB01421
   87    90     0     0     0
SMALL
USER_CHARGES

@<TRIPOS>ATOM
      1 O1          0.7672    1.4921    0.4293 O.3       1 <0>        -0.3402
      2 O2          3.0571   -0.1381    0.8685 O.3       1 <0>        -0.3422
      3 O3          0.1240    1.2661    2.6814 O.3       1 <0>        -0.3405
      4 O4         -3.2527    0.4710    1.7674 O.3       1 <0>        -0.3410
      5 O5          1.4011    4.3130    0.2035 O.3       1 <0>        -0.3876
      6 O6          3.3041   -1.7410   -0.8290 O.3       1 <0>        -0.3415
      7 O7         -3.5486   -0.3115   -0.4312 O.3       1 <0>        -0.3425
      8 O8         -2.1855    2.9999    1.8467 O.3       1 <0>        -0.3841
      9 O9          0.6835   -3.7201    0.6295 O.3       1 <0>        -0.3874
     10 O10         4.0834   -4.5820   -0.2612 O.3       1 <0>        -0.3865
     11 O11        -6.2591    1.9588   -0.8904 O.3       1 <0>        -0.3874
     12 O12        -0.0368   -0.8918    4.4909 O.3       1 <0>        -0.3924
     13 O13        -5.9953   -1.6519   -1.3471 O.3       1 <0>        -0.3866
     14 O14         1.7325   -1.5321   -3.0869 O.3       1 <0>        -0.3924
     15 N1          5.2739    0.3775   -0.9336 N.3       1 <0>        -0.3250
     16 N2          3.5580    4.8973   -1.6286 N.3       1 <0>        -0.3250
     17 N3          3.9506   -2.5922    1.9259 N.3       1 <0>        -0.3211
     18 N4         -5.7518   -0.8068    1.4833 N.3       1 <0>        -0.3211
     19 N5         -2.0918   -0.8852   -2.7479 N.3       1 <0>        -0.3276
     20 C1          2.0972    2.0199    0.4201 C.3       1 <0>         0.1166
     21 C2          3.0277    0.9173   -0.0969 C.3       1 <0>         0.1055
     22 C3          4.4535    1.4325   -0.3333 C.3       1 <0>         0.0355
     23 C4          2.1290    3.2755   -0.4590 C.3       1 <0>         0.0990
     24 C5          3.5630    3.7694   -0.6925 C.3       1 <0>         0.0351
     25 C6          4.4542    2.6570   -1.2522 C.3       1 <0>        -0.0175
     26 C7         -0.0028    2.0576    1.4834 C.3       1 <0>         0.1884
     27 C8         -1.8630    0.6296    1.5761 C.3       1 <0>         0.1205
     28 C9         -1.4753    2.0158    1.1017 C.3       1 <0>         0.1345
     29 C10        -1.0922    0.5244    2.8819 C.3       1 <0>         0.1135
     30 C11         2.5506   -1.3543    0.3189 C.3       1 <0>         0.1776
     31 C12         2.5901   -2.4482    1.3966 C.3       1 <0>         0.0853
     32 C13        -3.9788    0.6322    0.5510 C.3       1 <0>         0.1776
     33 C14         2.0971   -3.7835    0.8176 C.3       1 <0>         0.1033
     34 C15        -5.4840    0.4788    0.8304 C.3       1 <0>         0.0853
     35 C16         2.7554   -4.1213   -0.5257 C.3       1 <0>         0.1109
     36 C17         2.8379   -2.9241   -1.4891 C.3       1 <0>         0.1129
     37 C18        -6.2827    0.5904   -0.4788 C.3       1 <0>         0.1033
     38 C19        -0.7612   -0.9055    3.2716 C.3       1 <0>         0.0730
     39 C20        -5.6948   -0.2811   -1.5985 C.3       1 <0>         0.1100
     40 C21        -4.1714   -0.0980   -1.7041 C.3       1 <0>         0.1022
     41 C22         1.5388   -2.6547   -2.2463 C.3       1 <0>         0.0730
     42 C23        -3.5345   -1.0700   -2.6911 C.3       1 <0>         0.0222
     43 H1          2.3952    2.2621    1.4507 H         1 <0>         0.0650
     44 H2          2.6097    0.5659   -1.0524 H         1 <0>         0.0639
     45 H3          4.9069    1.6958    0.6309 H         1 <0>         0.0485
     46 H4          1.6153    3.0799   -1.4084 H         1 <0>         0.0636
     47 H5          3.9859    4.1294    0.2544 H         1 <0>         0.0485
     48 H6          5.4806    3.0294   -1.3713 H         1 <0>         0.0297
     49 H7          4.1051    2.3702   -2.2546 H         1 <0>         0.0297
     50 H8          0.2973    3.0727    1.7492 H         1 <0>         0.0938
     51 H9         -1.4834   -0.1254    0.8741 H         1 <0>         0.0651
     52 H10        -1.6514    2.1794    0.0342 H         1 <0>         0.0671
     53 H11        -1.6314    1.0068    3.7070 H         1 <0>         0.0647
     54 H12         1.5073   -1.1715    0.0349 H         1 <0>         0.0927
     55 H13         1.9541   -2.1383    2.2321 H         1 <0>         0.0535
     56 H14        -3.8138    1.6468    0.1693 H         1 <0>         0.0927
     57 H15         2.2843   -4.5934    1.5340 H         1 <0>         0.0637
     58 H16         5.3085   -0.4260   -0.3074 H         1 <0>         0.1185
     59 H17         6.2335    0.7054   -1.0352 H         1 <0>         0.1185
     60 H18        -5.7877    1.2725    1.5246 H         1 <0>         0.0535
     61 H19         4.5044    5.2607   -1.7327 H         1 <0>         0.1185
     62 H20         2.9978    5.6568   -1.2434 H         1 <0>         0.1185
     63 H21         2.2210   -4.9485   -1.0078 H         1 <0>         0.0646
     64 H22         3.6092   -3.1313   -2.2417 H         1 <0>         0.0647
     65 H23        -7.3318    0.3272   -0.2961 H         1 <0>         0.0637
     66 H24         1.8840    4.5496    1.0139 H         1 <0>         0.2100
     67 H25        -1.6722   -1.4958    3.4093 H         1 <0>         0.0584
     68 H26        -0.1368   -1.3798    2.5113 H         1 <0>         0.0584
     69 H27        -6.1470   -0.0181   -2.5622 H         1 <0>         0.0646
     70 H28        -3.9496    0.9288   -2.0266 H         1 <0>         0.0636
     71 H29        -1.8724    3.8712    1.5494 H         1 <0>         0.2101
     72 H30         4.2559   -1.7055    2.3254 H         1 <0>         0.1187
     73 H31         3.9514   -3.2687    2.6880 H         1 <0>         0.1187
     74 H32         1.2659   -3.5166   -2.8636 H         1 <0>         0.0584
     75 H33         0.7036   -2.4271   -1.5802 H         1 <0>         0.0584
     76 H34        -3.7153   -2.1054   -2.3829 H         1 <0>         0.0448
     77 H35        -3.9636   -0.9350   -3.6899 H         1 <0>         0.0448
     78 H36        -6.7398   -0.8683    1.7253 H         1 <0>         0.1187
     79 H37        -5.2351   -0.8570    2.3604 H         1 <0>         0.1187
     80 H38         0.2789   -3.5602    1.4990 H         1 <0>         0.2100
     81 H39         4.4690   -4.8683   -1.1068 H         1 <0>         0.2100
     82 H40        -6.7909    2.0296   -1.7014 H         1 <0>         0.2100
     83 H41        -6.9632   -1.7374   -1.3089 H         1 <0>         0.2100
     84 H42         0.1696   -1.8162    4.7111 H         1 <0>         0.2095
     85 H43        -1.8776    0.0625   -3.0556 H         1 <0>         0.1183
     86 H44        -1.6962   -1.5100   -3.4492 H         1 <0>         0.1183
     87 H45         0.8975   -1.3813   -3.5619 H         1 <0>         0.2095
@<TRIPOS>BOND
     1    1   20 1
     2    1   26 1
     3    2   21 1
     4    2   30 1
     5    3   26 1
     6    3   29 1
     7    4   27 1
     8    4   32 1
     9    5   23 1
    10    5   66 1
    11    6   30 1
    12    6   36 1
    13    7   32 1
    14    7   40 1
    15    8   28 1
    16    8   71 1
    17    9   33 1
    18    9   80 1
    19   10   35 1
    20   10   81 1
    21   11   37 1
    22   11   82 1
    23   12   38 1
    24   12   84 1
    25   13   39 1
    26   13   83 1
    27   14   41 1
    28   14   87 1
    29   15   22 1
    30   15   58 1
    31   15   59 1
    32   16   24 1
    33   16   61 1
    34   16   62 1
    35   17   31 1
    36   17   72 1
    37   17   73 1
    38   18   34 1
    39   18   78 1
    40   18   79 1
    41   19   42 1
    42   19   85 1
    43   19   86 1
    44   20   21 1
    45   20   23 1
    46   20   43 1
    47   21   22 1
    48   21   44 1
    49   22   25 1
    50   22   45 1
    51   23   24 1
    52   23   46 1
    53   24   25 1
    54   24   47 1
    55   25   48 1
    56   25   49 1
    57   26   28 1
    58   26   50 1
    59   27   28 1
    60   27   29 1
    61   27   51 1
    62   28   52 1
    63   29   38 1
    64   29   53 1
    65   30   31 1
    66   30   54 1
    67   31   33 1
    68   31   55 1
    69   32   34 1
    70   32   56 1
    71   33   35 1
    72   33   57 1
    73   34   37 1
    74   34   60 1
    75   35   36 1
    76   35   63 1
    77   36   41 1
    78   36   64 1
    79   37   39 1
    80   37   65 1
    81   38   67 1
    82   38   68 1
    83   39   40 1
    84   39   69 1
    85   40   42 1
    86   40   70 1
    87   41   74 1
    88   41   75 1
    89   42   76 1
    90   42   77 1
