@<TRIPOS>MOLECULE
DB01326
   49    52     0     0     0
SMALL
USER_CHARGES

@<TRIPOS>ATOM
      1 S1          0.6550   -0.1992    1.3398 S.3       1 <0>        -0.1311
      2 S2         -3.8264    0.7281   -0.1226 S.3       1 <0>        -0.0801
      3 O1          0.4423   -3.7157   -1.6937 O.2       1 <0>        -0.2731
      4 O2         -3.0498   -3.6972   -0.2840 O.3       1 <0>        -0.4763
      5 O3          4.5168   -1.9422    0.8081 O.2       1 <0>        -0.2726
      6 O4         -2.6560   -2.2370   -1.9994 O.2       1 <0>        -0.2437
      7 O5          6.0438   -0.7411   -1.1475 O.3       1 <0>        -0.3779
      8 N1         -0.2762   -2.3467    0.0868 N.am      1 <0>        -0.2490
      9 N2          2.6417   -1.6144   -0.5210 N.am      1 <0>        -0.2993
     10 N3         -6.2454    1.9397   -0.4186 N.pl3     1 <0>        -0.2233
     11 N4         -6.2300    0.4191    1.1274 N.2       1 <0>        -0.1015
     12 N5         -7.4909    1.9277    0.0765 N.2       1 <0>        -0.0435
     13 N6         -7.4756    0.9954    1.0213 N.2       1 <0>        -0.0222
     14 C1          0.6793   -1.9930    1.1206 C.3       1 <0>         0.1042
     15 C2          1.7640   -2.5544    0.1755 C.3       1 <0>         0.1284
     16 C3          0.5727   -3.0520   -0.6918 C.2       1 <0>         0.2440
     17 C4         -1.5807   -1.9697    0.1037 C.2       1 <0>         0.1228
     18 C5         -2.0240   -0.9934    0.9310 C.2       1 <0>        -0.0211
     19 C6         -1.1028   -0.1710    1.8294 C.3       1 <0>         0.0196
     20 C7         -3.4685   -0.5752    1.0667 C.3       1 <0>         0.0253
     21 C8          3.9631   -1.3863   -0.1382 C.2       1 <0>         0.2468
     22 C9         -2.4765   -2.6235   -0.8621 C.2       1 <0>         0.3514
     23 C10         4.6751   -0.3810   -1.0325 C.3       1 <0>         0.1558
     24 C11         4.5844    1.0212   -0.4778 C.ar      1 <0>        -0.0103
     25 C12        -5.5325    1.0262    0.2372 C.cat     1 <0>         0.2094
     26 C13         3.5193    1.8280   -0.8442 C.ar      1 <0>        -0.0557
     27 C14         5.5676    1.4736    0.3872 C.ar      1 <0>        -0.0557
     28 C15         3.4353    3.1226   -0.3320 C.ar      1 <0>        -0.0614
     29 C16         5.4833    2.7683    0.8995 C.ar      1 <0>        -0.0614
     30 C17         4.4172    3.5927    0.5399 C.ar      1 <0>        -0.0617
     31 C18        -5.8926    2.8477   -1.4806 C.3       1 <0>         0.0346
     32 H1          0.5482   -2.5745    2.0409 H         1 <0>         0.0644
     33 H2          2.3236   -3.3929    0.6089 H         1 <0>         0.0622
     34 H3         -1.1883   -0.5303    2.8609 H         1 <0>         0.0423
     35 H4         -1.4019    0.8821    1.8195 H         1 <0>         0.0423
     36 H5          2.2817   -1.0903   -1.3153 H         1 <0>         0.1496
     37 H6         -4.1362   -1.4250    0.8884 H         1 <0>         0.0427
     38 H7         -3.6702   -0.2301    2.0873 H         1 <0>         0.0427
     39 H8          4.2568   -0.4075   -2.0457 H         1 <0>         0.0741
     40 H9         -3.6587   -4.1643   -0.8950 H         1 <0>         0.2954
     41 H10         6.0835   -1.5942   -1.6127 H         1 <0>         0.2109
     42 H11         2.7490    1.4711   -1.5217 H         1 <0>         0.0621
     43 H12         6.3998    0.8472    0.6942 H         1 <0>         0.0621
     44 H13         2.6046    3.7642   -0.6112 H         1 <0>         0.0618
     45 H14         6.2459    3.1336    1.5813 H         1 <0>         0.0618
     46 H15         4.3511    4.6003    0.9397 H         1 <0>         0.0618
     47 H16        -5.0923    3.5024   -1.1274 H         1 <0>         0.0474
     48 H17        -5.5645    2.2633   -2.3435 H         1 <0>         0.0474
     49 H18        -6.7651    3.4476   -1.7531 H         1 <0>         0.0474
@<TRIPOS>BOND
     1    1   14 1
     2    1   19 1
     3    2   20 1
     4    2   25 1
     5    3   16 2
     6    4   22 1
     7    4   40 1
     8    5   21 2
     9    6   22 2
    10    7   23 1
    11    7   41 1
    12    8   14 1
    13    8   16 am
    14    8   17 1
    15    9   15 1
    16    9   21 am
    17    9   36 1
    18   10   12 1
    19   10   25 2
    20   10   31 1
    21   11   13 2
    22   11   25 1
    23   12   13 1
    24   14   15 1
    25   14   32 1
    26   15   16 1
    27   15   33 1
    28   17   18 2
    29   17   22 1
    30   18   19 1
    31   18   20 1
    32   19   34 1
    33   19   35 1
    34   20   37 1
    35   20   38 1
    36   21   23 1
    37   23   24 1
    38   23   39 1
    39   24   26 ar
    40   24   27 ar
    41   26   28 ar
    42   26   42 1
    43   27   29 ar
    44   27   43 1
    45   28   30 ar
    46   28   44 1
    47   29   30 ar
    48   29   45 1
    49   30   46 1
    50   31   47 1
    51   31   48 1
    52   31   49 1
