@<TRIPOS>MOLECULE
DB01623
   59    62     0     0     0
SMALL
USER_CHARGES

@<TRIPOS>ATOM
      1 S1         -0.0092    3.5363   -1.5267 S.o2      1 <0>         0.0604
      2 S2          4.7907    0.8453    1.6103 S.3       1 <0>        -0.0882
      3 O1          0.3516    4.9293   -1.7667 O.2       1 <0>        -0.1529
      4 O2         -0.3473    2.6988   -2.6724 O.2       1 <0>        -0.1529
      5 N1         -2.0295   -1.5486    0.4776 N.3       1 <0>        -0.2996
      6 N2         -4.8351   -1.8156   -0.1675 N.3       1 <0>        -0.3029
      7 N3         -1.3163    3.4866   -0.3946 N.pl3     1 <0>        -0.1827
      8 C1         -2.5046   -1.4582   -0.9085 C.3       1 <0>         0.0117
      9 C2         -2.9140   -2.4147    1.2666 C.3       1 <0>         0.0117
     10 C3         -3.9501   -0.9512   -0.9578 C.3       1 <0>         0.0114
     11 C4         -4.3591   -1.9068    1.2183 C.3       1 <0>         0.0114
     12 C5         -0.6516   -2.0341    0.5234 C.3       1 <0>         0.0024
     13 C6          0.2762   -1.0641   -0.2071 C.3       1 <0>        -0.0211
     14 C7         -6.2123   -1.3283   -0.2124 C.3       1 <0>        -0.0127
     15 C8          1.6942   -1.5358   -0.1522 C.2       1 <0>        -0.0745
     16 C9          2.7575   -0.7085   -0.1435 C.2       1 <0>        -0.0124
     17 C10         2.5313    0.7593   -0.0543 C.ar      1 <0>        -0.0020
     18 C11         4.1256   -1.2900   -0.0872 C.ar      1 <0>        -0.0038
     19 C12         3.4117    1.5477    0.7107 C.ar      1 <0>         0.0206
     20 C13         1.4883    1.3935   -0.7520 C.ar      1 <0>        -0.0266
     21 C14         5.1184   -0.6456    0.6753 C.ar      1 <0>         0.0205
     22 C15         1.3035    2.7742   -0.6632 C.ar      1 <0>         0.1061
     23 C16         3.2132    2.9337    0.7985 C.ar      1 <0>        -0.0455
     24 C17         4.4731   -2.4426   -0.8137 C.ar      1 <0>        -0.0530
     25 C18         2.1617    3.5426    0.1154 C.ar      1 <0>        -0.0343
     26 C19         6.4142   -1.1803    0.7321 C.ar      1 <0>        -0.0474
     27 C20         5.7670   -2.9624   -0.7558 C.ar      1 <0>        -0.0611
     28 C21         6.7351   -2.3347    0.0204 C.ar      1 <0>        -0.0607
     29 C22        -1.7634    2.1525    0.0803 C.3       1 <0>         0.0086
     30 C23        -1.3177    4.4939    0.6967 C.3       1 <0>         0.0086
     31 H1         -2.4381   -2.4330   -1.4108 H         1 <0>         0.0439
     32 H2         -1.9280   -0.7443   -1.5013 H         1 <0>         0.0439
     33 H3         -2.5879   -2.4231    2.3137 H         1 <0>         0.0439
     34 H4         -2.8745   -3.4508    0.9035 H         1 <0>         0.0439
     35 H5         -3.9941    0.0849   -0.5973 H         1 <0>         0.0439
     36 H6         -4.2782   -0.9458   -2.0045 H         1 <0>         0.0439
     37 H7         -4.9893   -2.6059    1.7813 H         1 <0>         0.0439
     38 H8         -4.4242   -0.9315    1.7197 H         1 <0>         0.0439
     39 H9         -0.5748   -3.0397    0.0876 H         1 <0>         0.0429
     40 H10        -0.3262   -2.1125    1.5695 H         1 <0>         0.0429
     41 H11         0.0123   -1.0110   -1.2657 H         1 <0>         0.0320
     42 H12         0.1137   -0.1184    0.3083 H         1 <0>         0.0320
     43 H13        -6.5780   -1.3050   -1.2449 H         1 <0>         0.0391
     44 H14        -6.3106   -0.3223    0.2110 H         1 <0>         0.0391
     45 H15        -6.8764   -2.0016    0.3409 H         1 <0>         0.0391
     46 H16         1.8353   -2.6143   -0.1697 H         1 <0>         0.0579
     47 H17         0.8844    0.8591   -1.4757 H         1 <0>         0.0643
     48 H18         3.8758    3.5559    1.3961 H         1 <0>         0.0629
     49 H19         3.7467   -2.9486   -1.4454 H         1 <0>         0.0624
     50 H20         2.0321    4.6173    0.2066 H         1 <0>         0.0637
     51 H21         7.1902   -0.7018    1.3257 H         1 <0>         0.0629
     52 H22         6.0182   -3.8557   -1.3205 H         1 <0>         0.0618
     53 H23         7.7418   -2.7393    0.0666 H         1 <0>         0.0618
     54 H24        -1.7341    1.4322   -0.7383 H         1 <0>         0.0408
     55 H25        -2.8018    2.2173    0.4197 H         1 <0>         0.0408
     56 H26        -1.1426    1.8047    0.9097 H         1 <0>         0.0408
     57 H27        -1.1466    5.4960    0.2948 H         1 <0>         0.0408
     58 H28        -0.5525    4.2597    1.4416 H         1 <0>         0.0408
     59 H29        -2.2960    4.5055    1.1878 H         1 <0>         0.0408
@<TRIPOS>BOND
     1    1    3 2
     2    1    4 2
     3    1    7 1
     4    1   22 1
     5    2   19 1
     6    2   21 1
     7    5    8 1
     8    5    9 1
     9    5   12 1
    10    6   10 1
    11    6   11 1
    12    6   14 1
    13    7   29 1
    14    7   30 1
    15    8   10 1
    16    8   31 1
    17    8   32 1
    18    9   11 1
    19    9   33 1
    20    9   34 1
    21   10   35 1
    22   10   36 1
    23   11   37 1
    24   11   38 1
    25   12   13 1
    26   12   39 1
    27   12   40 1
    28   13   15 1
    29   13   41 1
    30   13   42 1
    31   14   43 1
    32   14   44 1
    33   14   45 1
    34   15   16 2
    35   15   46 1
    36   16   17 1
    37   16   18 1
    38   17   19 ar
    39   17   20 ar
    40   18   21 ar
    41   18   24 ar
    42   19   23 ar
    43   20   22 ar
    44   20   47 1
    45   21   26 ar
    46   22   25 ar
    47   23   25 ar
    48   23   48 1
    49   24   27 ar
    50   24   49 1
    51   25   50 1
    52   26   28 ar
    53   26   51 1
    54   27   28 ar
    55   27   52 1
    56   28   53 1
    57   29   54 1
    58   29   55 1
    59   29   56 1
    60   30   57 1
    61   30   58 1
    62   30   59 1
