@<TRIPOS>MOLECULE
DB01058
   47    50     0     0     0
SMALL
USER_CHARGES

@<TRIPOS>ATOM
      1 O1          2.4736   -2.7030    0.4662 O.2       1 <0>        -0.2753
      2 O2         -2.1113   -4.0549    0.0365 O.2       1 <0>        -0.2739
      3 N1         -2.3577   -1.7434    0.1555 N.am      1 <0>        -0.2913
      4 N2          0.4183   -1.6094    0.4964 N.am      1 <0>        -0.2903
      5 C1         -1.8119   -0.5115    0.7431 C.3       1 <0>         0.0672
      6 C2          2.4684   -0.4272   -0.1785 C.3       1 <0>         0.0358
      7 C3         -0.3505   -0.3747    0.3038 C.3       1 <0>         0.0380
      8 C4          2.8899    0.4164    1.0267 C.3       1 <0>        -0.0419
      9 C5          3.6656   -0.7712   -1.0674 C.3       1 <0>        -0.0419
     10 C6          1.7993   -1.6860    0.2875 C.2       1 <0>         0.2191
     11 C7          3.6591    1.6640    0.6006 C.3       1 <0>        -0.0524
     12 C8          4.4334    0.4791   -1.4885 C.3       1 <0>        -0.0524
     13 C9         -2.5968    0.7465    0.4157 C.ar      1 <0>        -0.0223
     14 C10        -3.7212   -1.7349   -0.3636 C.3       1 <0>         0.0194
     15 C11        -0.2985   -2.7958    0.9562 C.3       1 <0>         0.0913
     16 C12         4.8530    1.3148   -0.2830 C.3       1 <0>        -0.0530
     17 C13        -3.9490   -0.5390   -1.2765 C.3       1 <0>        -0.0115
     18 C14        -1.6557   -2.9404    0.2934 C.2       1 <0>         0.2335
     19 C15        -3.6152    0.7372   -0.5542 C.ar      1 <0>        -0.0409
     20 C16        -2.3069    1.9456    1.0859 C.ar      1 <0>        -0.0565
     21 C17        -4.2932    1.9229   -0.8678 C.ar      1 <0>        -0.0582
     22 C18        -2.9978    3.1180    0.7791 C.ar      1 <0>        -0.0614
     23 C19        -3.9865    3.1078   -0.2008 C.ar      1 <0>        -0.0615
     24 H1         -1.8582   -0.6608    1.8310 H         1 <0>         0.0566
     25 H2          1.7923    0.1619   -0.8056 H         1 <0>         0.0394
     26 H3         -0.3126   -0.1425   -0.7685 H         1 <0>         0.0486
     27 H4          0.1303    0.4464    0.8378 H         1 <0>         0.0486
     28 H5          2.0339    0.7142    1.6391 H         1 <0>         0.0272
     29 H6          3.5286   -0.1852    1.6879 H         1 <0>         0.0272
     30 H7          4.3589   -1.4408   -0.5415 H         1 <0>         0.0272
     31 H8          3.3290   -1.3128   -1.9601 H         1 <0>         0.0272
     32 H9          4.0054    2.2046    1.4887 H         1 <0>         0.0265
     33 H10         2.9864    2.3391    0.0574 H         1 <0>         0.0265
     34 H11         3.8057    1.0860   -2.1527 H         1 <0>         0.0265
     35 H12         5.3203    0.1908   -2.0639 H         1 <0>         0.0265
     36 H13        -4.3951   -1.7051    0.5018 H         1 <0>         0.0468
     37 H14        -3.9239   -2.6648   -0.9053 H         1 <0>         0.0468
     38 H15        -0.4388   -2.7069    2.0391 H         1 <0>         0.0560
     39 H16         0.2897   -3.6972    0.7578 H         1 <0>         0.0560
     40 H17         5.3412    2.2348   -0.6238 H         1 <0>         0.0265
     41 H18         5.5931    0.7594    0.3064 H         1 <0>         0.0265
     42 H19        -4.9952   -0.5335   -1.6031 H         1 <0>         0.0328
     43 H20        -3.3148   -0.6116   -2.1683 H         1 <0>         0.0328
     44 H21        -1.5349    1.9738    1.8511 H         1 <0>         0.0621
     45 H22        -5.0687    1.9276   -1.6294 H         1 <0>         0.0620
     46 H23        -2.7608    4.0399    1.3023 H         1 <0>         0.0618
     47 H24        -4.5202    4.0217   -0.4441 H         1 <0>         0.0618
@<TRIPOS>BOND
     1    1   10 2
     2    2   18 2
     3    3    5 1
     4    3   14 1
     5    3   18 am
     6    4    7 1
     7    4   10 am
     8    4   15 1
     9    5    7 1
    10    5   13 1
    11    5   24 1
    12    6    8 1
    13    6    9 1
    14    6   10 1
    15    6   25 1
    16    7   26 1
    17    7   27 1
    18    8   11 1
    19    8   28 1
    20    8   29 1
    21    9   12 1
    22    9   30 1
    23    9   31 1
    24   11   16 1
    25   11   32 1
    26   11   33 1
    27   12   16 1
    28   12   34 1
    29   12   35 1
    30   13   19 ar
    31   13   20 ar
    32   14   17 1
    33   14   36 1
    34   14   37 1
    35   15   18 1
    36   15   38 1
    37   15   39 1
    38   16   40 1
    39   16   41 1
    40   17   19 1
    41   17   42 1
    42   17   43 1
    43   19   21 ar
    44   20   22 ar
    45   20   44 1
    46   21   23 ar
    47   21   45 1
    48   22   23 ar
    49   22   46 1
    50   23   47 1
