@<TRIPOS>MOLECULE
DB01607
   41    43     0     0     0
SMALL
USER_CHARGES

@<TRIPOS>ATOM
      1 S1         -0.8892    0.2944    1.1617 S.3       1 <0>        -0.1273
      2 S2          2.4694    3.4063   -0.7411 S.3       1 <0>        -0.1048
      3 O1         -1.4998   -2.5878   -2.0856 O.2       1 <0>        -0.2734
      4 O2         -5.3544   -0.2960    0.1119 O.3       1 <0>        -0.4793
      5 O3         -4.1019   -1.2387    1.7668 O.2       1 <0>        -0.2489
      6 O4          2.1599   -1.6061    1.6194 O.2       1 <0>        -0.2745
      7 O5          4.8617   -2.1811   -0.0392 O.3       1 <0>        -0.4799
      8 O6          5.4301   -0.0942    0.6500 O.2       1 <0>        -0.2498
      9 N1         -2.1781   -1.6578   -0.0264 N.am      1 <0>        -0.2708
     10 N2          0.9933   -1.5461   -0.3854 N.am      1 <0>        -0.3008
     11 C1         -1.1612   -1.5121    1.0161 C.3       1 <0>         0.1005
     12 C2         -2.2138    0.7354   -0.0693 C.3       1 <0>         0.0417
     13 C3         -3.0542   -0.5412   -0.2969 C.3       1 <0>         0.1379
     14 C4         -0.1971   -2.2666    0.0859 C.3       1 <0>         0.1277
     15 C5         -1.3616   -2.2812   -0.9234 C.2       1 <0>         0.2402
     16 C6         -3.0216    1.9218    0.4669 C.3       1 <0>        -0.0484
     17 C7         -1.5091    1.1600   -1.3687 C.3       1 <0>        -0.0484
     18 C8         -4.1948   -0.7414    0.6544 C.2       1 <0>         0.3269
     19 C9          2.0875   -1.2739    0.4375 C.2       1 <0>         0.2320
     20 C10         3.2002   -0.5037   -0.2715 C.3       1 <0>         0.1575
     21 C11         2.9430    0.9810   -0.1518 C.2       1 <0>        -0.0179
     22 C12         4.6014   -0.8676    0.1905 C.2       1 <0>         0.3212
     23 C13         2.9024    1.6525    1.0854 C.2       1 <0>        -0.0503
     24 C14         2.7286    1.7854   -1.2284 C.2       1 <0>        -0.0199
     25 C15         2.6502    2.9954    0.9114 C.2       1 <0>        -0.0240
     26 H1         -1.4159   -2.0259    1.9472 H         1 <0>         0.0640
     27 H2         -3.4150   -0.6217   -1.3291 H         1 <0>         0.0631
     28 H3          0.0585   -3.2753    0.4321 H         1 <0>         0.0622
     29 H4         -2.3961    2.8157    0.5780 H         1 <0>         0.0244
     30 H5         -3.8341    2.1797   -0.2220 H         1 <0>         0.0244
     31 H6         -3.4683    1.7138    1.4456 H         1 <0>         0.0244
     32 H7         -2.2473    1.4268   -2.1343 H         1 <0>         0.0244
     33 H8         -0.8724    2.0393   -1.2143 H         1 <0>         0.0244
     34 H9         -0.8832    0.3664   -1.7888 H         1 <0>         0.0244
     35 H10         1.0318   -1.2213   -1.3487 H         1 <0>         0.1496
     36 H11         3.1756   -0.7692   -1.3390 H         1 <0>         0.0559
     37 H12        -6.1141   -0.4180    0.7205 H         1 <0>         0.2951
     38 H13         3.0463    1.2007    2.0585 H         1 <0>         0.0626
     39 H14         2.7061    1.5219   -2.2767 H         1 <0>         0.0696
     40 H15         2.5630    3.7547    1.6757 H         1 <0>         0.0693
     41 H16         5.7745   -2.4244    0.2252 H         1 <0>         0.2951
@<TRIPOS>BOND
     1    1   11 1
     2    1   12 1
     3    2   24 1
     4    2   25 1
     5    3   15 2
     6    4   18 1
     7    4   37 1
     8    5   18 2
     9    6   19 2
    10    7   22 1
    11    7   41 1
    12    8   22 2
    13    9   11 1
    14    9   13 1
    15    9   15 am
    16   10   14 1
    17   10   19 am
    18   10   35 1
    19   11   14 1
    20   11   26 1
    21   12   13 1
    22   12   16 1
    23   12   17 1
    24   13   18 1
    25   13   27 1
    26   14   15 1
    27   14   28 1
    28   16   29 1
    29   16   30 1
    30   16   31 1
    31   17   32 1
    32   17   33 1
    33   17   34 1
    34   19   20 1
    35   20   21 1
    36   20   22 1
    37   20   36 1
    38   21   23 1
    39   21   24 2
    40   23   25 2
    41   23   38 1
    42   24   39 1
    43   25   40 1
