@<TRIPOS>MOLECULE
DB01586
   68    71     0     0     0
SMALL
USER_CHARGES

@<TRIPOS>ATOM
      1 O1          1.5746    3.4482   -0.0128 O.3       1 <0>        -0.3915
      2 O2          5.4039   -1.3202   -2.7165 O.3       1 <0>        -0.3918
      3 O3         -7.5074   -1.0203    1.0498 O.3       1 <0>        -0.4806
      4 O4         -6.5334    1.0270    0.9219 O.2       1 <0>        -0.2510
      5 C1         -0.2190    1.0475   -0.4255 C.3       1 <0>        -0.0299
      6 C2         -1.2027    0.0238    0.1880 C.3       1 <0>        -0.0258
      7 C3          1.1437    1.0792    0.2953 C.3       1 <0>        -0.0083
      8 C4          1.7787   -0.3510    0.2038 C.3       1 <0>        -0.0299
      9 C5          3.2040   -0.4182    0.8700 C.3       1 <0>        -0.0258
     10 C6         -2.4317    0.2773   -0.7193 C.3       1 <0>        -0.0328
     11 C7          4.1243    0.6768    0.2390 C.3       1 <0>        -0.0307
     12 C8         -0.5875   -1.3732    0.0427 C.3       1 <0>        -0.0468
     13 C9          0.8019   -1.4524    0.6955 C.3       1 <0>        -0.0489
     14 C10         2.0906    2.1462   -0.2882 C.3       1 <0>         0.0589
     15 C11        -1.0599    2.3184   -0.5310 C.3       1 <0>        -0.0491
     16 C12        -2.4800    1.8153   -0.8476 C.3       1 <0>        -0.0492
     17 C13         3.4933    2.0719    0.3150 C.3       1 <0>        -0.0232
     18 C14         3.8903   -1.8025    0.6766 C.3       1 <0>        -0.0448
     19 C15        -1.5434    0.2905    1.6759 C.3       1 <0>        -0.0590
     20 C16        -3.7540   -0.3203   -0.2601 C.3       1 <0>        -0.0400
     21 C17         4.5314    0.3521   -1.2133 C.3       1 <0>        -0.0234
     22 C18         3.1105   -0.1936    2.4015 C.3       1 <0>        -0.0590
     23 C19         4.2608   -2.1120   -0.7685 C.3       1 <0>        -0.0263
     24 C20         5.1648   -1.0297   -1.3436 C.3       1 <0>         0.0555
     25 C21        -4.8787    0.0583   -1.2454 C.3       1 <0>        -0.0401
     26 C22        -3.6168   -1.8380   -0.1000 C.3       1 <0>        -0.0621
     27 C23        -6.2345   -0.5610   -0.9001 C.3       1 <0>         0.0450
     28 C24        -6.7538   -0.0724    0.4334 C.2       1 <0>         0.3047
     29 H1         -0.0080    0.7432   -1.4648 H         1 <0>         0.0310
     30 H2          0.9631    1.3393    1.3436 H         1 <0>         0.0331
     31 H3          1.9117   -0.5509   -0.8684 H         1 <0>         0.0310
     32 H4         -2.2068   -0.1212   -1.7210 H         1 <0>         0.0309
     33 H5          5.0574    0.7153    0.8199 H         1 <0>         0.0308
     34 H6         -0.4908   -1.6359   -1.0186 H         1 <0>         0.0271
     35 H7         -1.1790   -2.1606    0.5068 H         1 <0>         0.0271
     36 H8          0.6916   -1.4072    1.7833 H         1 <0>         0.0268
     37 H9          1.2104   -2.4425    0.4668 H         1 <0>         0.0268
     38 H10         2.1448    2.0479   -1.3776 H         1 <0>         0.0596
     39 H11        -0.6982    2.9856   -1.3200 H         1 <0>         0.0268
     40 H12        -1.0601    2.8800    0.4098 H         1 <0>         0.0268
     41 H13        -3.1908    2.2707   -0.1485 H         1 <0>         0.0268
     42 H14        -2.7773    2.1098   -1.8604 H         1 <0>         0.0268
     43 H15         3.4600    2.4052    1.3604 H         1 <0>         0.0293
     44 H16         4.1383    2.8072   -0.1842 H         1 <0>         0.0293
     45 H17         3.2696   -2.6117    1.0758 H         1 <0>         0.0271
     46 H18         4.8149   -1.8282    1.2710 H         1 <0>         0.0271
     47 H19        -0.6546    0.3144    2.3123 H         1 <0>         0.0235
     48 H20        -2.0574    1.2460    1.8214 H         1 <0>         0.0235
     49 H21        -2.1904   -0.4893    2.0888 H         1 <0>         0.0235
     50 H22        -4.0246    0.0932    0.7184 H         1 <0>         0.0301
     51 H23         3.6755    0.4242   -1.8945 H         1 <0>         0.0293
     52 H24         5.2448    1.1033   -1.5768 H         1 <0>         0.0293
     53 H25         4.1104   -0.1393    2.8486 H         1 <0>         0.0235
     54 H26         2.5925    0.7313    2.6662 H         1 <0>         0.0235
     55 H27         2.5870   -1.0177    2.8971 H         1 <0>         0.0235
     56 H28         4.7752   -3.0796   -0.8198 H         1 <0>         0.0290
     57 H29         3.3610   -2.2312   -1.3837 H         1 <0>         0.0290
     58 H30         6.1335   -1.0424   -0.8312 H         1 <0>         0.0593
     59 H31        -4.9948    1.1475   -1.2874 H         1 <0>         0.0273
     60 H32        -4.6032   -0.2669   -2.2568 H         1 <0>         0.0273
     61 H33         1.4927    3.5425    0.9516 H         1 <0>         0.2098
     62 H34        -3.1102   -2.2980   -0.9542 H         1 <0>         0.0233
     63 H35        -3.1022   -2.0938    0.8269 H         1 <0>         0.0233
     64 H36        -4.5795   -2.3407    0.0095 H         1 <0>         0.0233
     65 H37         4.5499   -1.3038   -3.1816 H         1 <0>         0.2098
     66 H38        -6.9685   -0.2491   -1.6532 H         1 <0>         0.0378
     67 H39        -6.2135   -1.6526   -0.9300 H         1 <0>         0.0378
     68 H40        -7.8441   -0.7117    1.9178 H         1 <0>         0.2951
@<TRIPOS>BOND
     1    1   14 1
     2    1   61 1
     3    2   24 1
     4    2   65 1
     5    3   28 1
     6    3   68 1
     7    4   28 2
     8    5    6 1
     9    5    7 1
    10    5   15 1
    11    5   29 1
    12    6   10 1
    13    6   12 1
    14    6   19 1
    15    7    8 1
    16    7   14 1
    17    7   30 1
    18    8    9 1
    19    8   13 1
    20    8   31 1
    21    9   11 1
    22    9   18 1
    23    9   22 1
    24   10   16 1
    25   10   20 1
    26   10   32 1
    27   11   17 1
    28   11   21 1
    29   11   33 1
    30   12   13 1
    31   12   34 1
    32   12   35 1
    33   13   36 1
    34   13   37 1
    35   14   17 1
    36   14   38 1
    37   15   16 1
    38   15   39 1
    39   15   40 1
    40   16   41 1
    41   16   42 1
    42   17   43 1
    43   17   44 1
    44   18   23 1
    45   18   45 1
    46   18   46 1
    47   19   47 1
    48   19   48 1
    49   19   49 1
    50   20   25 1
    51   20   26 1
    52   20   50 1
    53   21   24 1
    54   21   51 1
    55   21   52 1
    56   22   53 1
    57   22   54 1
    58   22   55 1
    59   23   24 1
    60   23   56 1
    61   23   57 1
    62   24   58 1
    63   25   27 1
    64   25   59 1
    65   25   60 1
    66   26   62 1
    67   26   63 1
    68   26   64 1
    69   27   28 1
    70   27   66 1
    71   27   67 1
