@<TRIPOS>MOLECULE
DB01099
   13    13     0     0     0
SMALL
USER_CHARGES

@<TRIPOS>ATOM
      1 F1          0.8229    2.3155    0.0001 F         1 <0>        -0.2004
      2 O1         -2.2313   -2.0656   -0.0007 O.2       1 <0>        -0.2447
      3 N1         -0.1506   -1.1384    0.0006 N.am      1 <0>        -0.2924
      4 N2          2.0588   -0.2311   -0.0004 N.pl3     1 <0>        -0.3422
      5 N3         -2.1142    0.2192   -0.0002 N.2       1 <0>        -0.1985
      6 C1          0.7039   -0.0535    0.0003 C.2       1 <0>         0.1351
      7 C2          0.1389    1.1592    0.0004 C.2       1 <0>         0.1790
      8 C3         -1.5434   -1.0434    0.0004 C.2       1 <0>         0.3473
      9 C4         -1.3234    1.2420    0.0001 C.2       1 <0>         0.0715
     10 H1          0.2743   -2.0610    0.0003 H         1 <0>         0.1717
     11 H2         -1.7479    2.2581   -0.0003 H         1 <0>         0.0862
     12 H3          2.6779    0.5698   -0.0003 H         1 <0>         0.1437
     13 H4          2.4342   -1.1709   -0.0001 H         1 <0>         0.1437
@<TRIPOS>BOND
     1    1    7 1
     2    2    8 2
     3    3    6 1
     4    3    8 am
     5    3   10 1
     6    4    6 1
     7    4   12 1
     8    4   13 1
     9    5    8 1
    10    5    9 2
    11    6    7 2
    12    7    9 1
    13    9   11 1
