@<TRIPOS>MOLECULE
DB01060
   44    46     0     0     0
SMALL
USER_CHARGES

@<TRIPOS>ATOM
      1 S1          1.0019    0.1647   -1.1640 S.3       1 <0>        -0.1273
      2 O1          2.3054   -2.5556    2.0182 O.2       1 <0>        -0.2734
      3 O2          5.4523    0.7307   -0.0403 O.3       1 <0>        -0.4793
      4 O3          4.5114   -0.4558   -1.7442 O.2       1 <0>        -0.2489
      5 O4         -1.4410   -2.4505   -1.7289 O.2       1 <0>        -0.2737
      6 O5         -3.4328    3.8811   -0.2024 O.3       1 <0>        -0.5068
      7 N1          2.7421   -1.4180   -0.0018 N.am      1 <0>        -0.2708
      8 N2         -0.3520   -2.1507    0.2960 N.am      1 <0>        -0.3002
      9 N3         -3.8668   -2.4471   -0.4072 N.3       1 <0>        -0.3163
     10 C1          1.7359   -1.5115   -1.0604 C.3       1 <0>         0.1005
     11 C2          2.1491    0.8988    0.1046 C.3       1 <0>         0.0417
     12 C3          3.2918   -0.1198    0.3155 C.3       1 <0>         0.1379
     13 C4          0.9915   -2.5199   -0.1700 C.3       1 <0>         0.1277
     14 C5          2.1063   -2.2603    0.8619 C.2       1 <0>         0.2402
     15 C6          2.6245    2.2711   -0.3840 C.3       1 <0>        -0.0484
     16 C7          1.3414    1.0843    1.4002 C.3       1 <0>        -0.0484
     17 C8          4.4568    0.0145   -0.6175 C.2       1 <0>         0.3269
     18 C9         -1.4732   -2.1473   -0.5373 C.2       1 <0>         0.2350
     19 C10        -2.7456   -1.7060    0.1775 C.3       1 <0>         0.1079
     20 C11        -2.9297   -0.2060    0.0756 C.ar      1 <0>        -0.0216
     21 C12        -2.9928    0.5458    1.2349 C.ar      1 <0>        -0.0532
     22 C13        -3.0312    0.3768   -1.1750 C.ar      1 <0>        -0.0532
     23 C14        -3.1633    1.9271    1.1405 C.ar      1 <0>        -0.0199
     24 C15        -3.2015    1.7581   -1.2692 C.ar      1 <0>        -0.0199
     25 C16        -3.2676    2.5332   -0.1115 C.ar      1 <0>         0.1169
     26 H1          2.1280   -1.9121   -1.9993 H         1 <0>         0.0640
     27 H2          3.6478   -0.1348    1.3524 H         1 <0>         0.0631
     28 H3          1.0134   -3.5493   -0.5476 H         1 <0>         0.0622
     29 H4          1.7880    2.9731   -0.4840 H         1 <0>         0.0244
     30 H5          3.3325    2.7111    0.3277 H         1 <0>         0.0244
     31 H6          3.1223    2.2172   -1.3585 H         1 <0>         0.0244
     32 H7          1.9732    1.5148    2.1862 H         1 <0>         0.0244
     33 H8          0.4958    1.7674    1.2552 H         1 <0>         0.0244
     34 H9          0.9433    0.1416    1.7886 H         1 <0>         0.0244
     35 H10        -0.4838   -1.8750    1.2665 H         1 <0>         0.1496
     36 H11        -2.6740   -2.0052    1.2308 H         1 <0>         0.0605
     37 H12         6.2250    0.8303   -0.6364 H         1 <0>         0.2951
     38 H13        -4.7236   -2.2180    0.0959 H         1 <0>         0.1192
     39 H14        -3.7221   -3.4472   -0.2702 H         1 <0>         0.1192
     40 H15        -2.9114    0.0854    2.2150 H         1 <0>         0.0622
     41 H16        -2.9869   -0.2102   -2.0873 H         1 <0>         0.0622
     42 H17        -3.2130    2.5257    2.0459 H         1 <0>         0.0654
     43 H18        -3.2819    2.2181   -2.2504 H         1 <0>         0.0654
     44 H19        -3.4853    4.1292   -1.1413 H         1 <0>         0.2921
@<TRIPOS>BOND
     1    1   10 1
     2    1   11 1
     3    2   14 2
     4    3   17 1
     5    3   37 1
     6    4   17 2
     7    5   18 2
     8    6   25 1
     9    6   44 1
    10    7   10 1
    11    7   12 1
    12    7   14 am
    13    8   13 1
    14    8   18 am
    15    8   35 1
    16    9   19 1
    17    9   38 1
    18    9   39 1
    19   10   13 1
    20   10   26 1
    21   11   12 1
    22   11   15 1
    23   11   16 1
    24   12   17 1
    25   12   27 1
    26   13   14 1
    27   13   28 1
    28   15   29 1
    29   15   30 1
    30   15   31 1
    31   16   32 1
    32   16   33 1
    33   16   34 1
    34   18   19 1
    35   19   20 1
    36   19   36 1
    37   20   21 ar
    38   20   22 ar
    39   21   23 ar
    40   21   40 1
    41   22   24 ar
    42   22   41 1
    43   23   25 ar
    44   23   42 1
    45   24   25 ar
    46   24   43 1
