@<TRIPOS>MOLECULE
DB01299
   35    36     0     0     0
SMALL
USER_CHARGES

@<TRIPOS>ATOM
      1 S1         -1.4002    2.5426   -1.0670 S.o2      1 <0>         0.0736
      2 O1         -2.1653    3.5648   -0.3627 O.2       1 <0>        -0.1499
      3 O2         -1.3473    2.5837   -2.5232 O.2       1 <0>        -0.1499
      4 O3          1.0566    0.6909    1.5382 O.3       1 <0>        -0.4875
      5 O4          2.6957   -1.4046    0.7503 O.3       1 <0>        -0.4771
      6 N1          0.2014    2.5411   -0.4318 N.pl3     1 <0>        -0.1963
      7 N2          1.4131    1.3171   -2.0339 N.ar      1 <0>        -0.2155
      8 N3         -3.4908   -2.7642    0.6136 N.pl3     1 <0>        -0.3580
      9 N4          2.6603   -0.6572   -1.4387 N.ar      1 <0>        -0.1982
     10 C1         -2.0137    0.9843   -0.5735 C.ar      1 <0>         0.1087
     11 C2          1.0516    1.4235   -0.7423 C.ar      1 <0>         0.1870
     12 C3         -2.6662    0.8479    0.6520 C.ar      1 <0>        -0.0333
     13 C4         -1.8518   -0.1243   -1.4046 C.ar      1 <0>        -0.0333
     14 C5          1.4409    0.5519    0.2479 C.ar      1 <0>         0.2234
     15 C6         -3.1563   -0.3970    1.0464 C.ar      1 <0>        -0.0392
     16 C7         -2.3420   -1.3692   -1.0100 C.ar      1 <0>        -0.0392
     17 C8         -2.9942   -1.5054    0.2155 C.ar      1 <0>         0.0247
     18 C9          2.2554   -0.4833   -0.1636 C.ar      1 <0>         0.2626
     19 C10         2.2089    0.2660   -2.3090 C.ar      1 <0>         0.1221
     20 C11         1.8943    1.4747    2.3923 C.3       1 <0>         0.0792
     21 C12         3.5318   -2.4451    0.2585 C.3       1 <0>         0.0805
     22 H1          0.2806    2.8747    0.5375 H         1 <0>         0.1754
     23 H2         -2.7967    1.6954    1.3189 H         1 <0>         0.0638
     24 H3         -1.3468   -0.0424   -2.3629 H         1 <0>         0.0638
     25 H4         -3.6611   -0.4909    2.0045 H         1 <0>         0.0636
     26 H5         -2.2090   -2.2255   -1.6662 H         1 <0>         0.0636
     27 H6          2.5179    0.1504   -3.3406 H         1 <0>         0.1049
     28 H7         -3.9625   -2.8641    1.5027 H         1 <0>         0.1423
     29 H8         -3.3717   -3.5686    0.0123 H         1 <0>         0.1423
     30 H9          1.3992    1.5681    3.3626 H         1 <0>         0.0660
     31 H10         2.0499    2.4761    1.9794 H         1 <0>         0.0660
     32 H11         2.8578    0.9757    2.5365 H         1 <0>         0.0660
     33 H12         3.7954   -3.0911    1.1013 H         1 <0>         0.0660
     34 H13         4.4601   -2.0400   -0.1583 H         1 <0>         0.0660
     35 H14         3.0048   -3.0562   -0.4820 H         1 <0>         0.0660
@<TRIPOS>BOND
     1    1    2 2
     2    1    3 2
     3    1    6 1
     4    1   10 1
     5    4   14 1
     6    4   20 1
     7    5   18 1
     8    5   21 1
     9    6   11 1
    10    6   22 1
    11    7   11 ar
    12    7   19 ar
    13    8   17 1
    14    8   28 1
    15    8   29 1
    16    9   18 ar
    17    9   19 ar
    18   10   12 ar
    19   10   13 ar
    20   11   14 ar
    21   12   15 ar
    22   12   23 1
    23   13   16 ar
    24   13   24 1
    25   14   18 ar
    26   15   17 ar
    27   15   25 1
    28   16   17 ar
    29   16   26 1
    30   19   27 1
    31   20   30 1
    32   20   31 1
    33   20   32 1
    34   21   33 1
    35   21   34 1
    36   21   35 1
