@<TRIPOS>MOLECULE
DB01129
   46    48     0     0     0
SMALL
USER_CHARGES

@<TRIPOS>ATOM
      1 S1         -2.6402    1.3774   -0.8720 S.o       1 <0>         0.0954
      2 O1          3.0954    0.9999   -0.8737 O.3       1 <0>        -0.4915
      3 O2          6.8666   -1.9556   -0.5089 O.3       1 <0>        -0.3829
      4 O3         -2.9314    2.8550   -0.6978 O.2       1 <0>        -0.2488
      5 N1         -5.3861    0.8554   -0.8438 N.pl3     1 <0>        -0.3310
      6 N2         -4.1314   -0.7022    0.1256 N.2       1 <0>        -0.2200
      7 N3         -0.1405    2.7106    1.0971 N.ar      1 <0>        -0.2585
      8 C1         -1.5913    0.8739    0.5225 C.3       1 <0>         0.0734
      9 C2         -0.2395    1.5243    0.4632 C.ar      1 <0>         0.0603
     10 C3          0.7973    0.9043   -0.2078 C.ar      1 <0>         0.0134
     11 C4          2.0286    1.5498   -0.2302 C.ar      1 <0>         0.1266
     12 C5         -4.1250    0.4513   -0.5043 C.cat     1 <0>         0.1981
     13 C6         -6.2650   -0.1008   -0.4037 C.ar      1 <0>         0.0669
     14 C7          4.2516    0.7170   -0.0877 C.3       1 <0>         0.0917
     15 C8          4.9858   -0.4639   -0.7012 C.3       1 <0>         0.0049
     16 C9         -5.4575   -1.0623    0.1977 C.ar      1 <0>         0.0900
     17 C10         0.6136   -0.4088   -0.8908 C.3       1 <0>        -0.0345
     18 C11         2.1767    2.7751    0.4103 C.ar      1 <0>        -0.0015
     19 C12         6.2277   -0.8376    0.0928 C.3       1 <0>         0.0504
     20 C13        -7.6545   -0.2041   -0.4776 C.ar      1 <0>        -0.0362
     21 C14         1.0715    3.3082    1.0540 C.ar      1 <0>         0.0314
     22 C15        -6.0546   -2.2012    0.7640 C.ar      1 <0>        -0.0342
     23 C16        -8.2321   -1.3441    0.0913 C.ar      1 <0>        -0.0597
     24 C17        -7.4481   -2.3260    0.7014 C.ar      1 <0>        -0.0596
     25 C18         8.0465   -2.3224    0.1932 C.3       1 <0>         0.0364
     26 H1         -1.5217   -0.2172    0.5555 H         1 <0>         0.0470
     27 H2         -2.1003    1.1812    1.4443 H         1 <0>         0.0470
     28 H3          3.9691    0.4779    0.9458 H         1 <0>         0.0697
     29 H4          4.8978    1.6021   -0.0795 H         1 <0>         0.0697
     30 H5          4.3129   -1.3283   -0.7715 H         1 <0>         0.0320
     31 H6          5.2576   -0.2400   -1.7407 H         1 <0>         0.0320
     32 H7         -5.6296    1.7070   -1.3322 H         1 <0>         0.1679
     33 H8          0.4498   -1.2025   -0.1546 H         1 <0>         0.0279
     34 H9          1.4866   -0.7001   -1.4841 H         1 <0>         0.0279
     35 H10        -0.2287   -0.3785   -1.5886 H         1 <0>         0.0279
     36 H11         3.1189    3.3119    0.4073 H         1 <0>         0.0669
     37 H12         6.9224    0.0104    0.1165 H         1 <0>         0.0561
     38 H13         5.9500   -1.0911    1.1228 H         1 <0>         0.0561
     39 H14        -8.2608    0.5593   -0.9517 H         1 <0>         0.0639
     40 H15         1.1339    4.2625    1.5666 H         1 <0>         0.0831
     41 H16        -5.4543   -2.9697    1.2404 H         1 <0>         0.0639
     42 H17        -9.3118   -1.4673    0.0575 H         1 <0>         0.0618
     43 H18        -7.9259   -3.2008    1.1347 H         1 <0>         0.0618
     44 H19         7.8083   -2.6038    1.2235 H         1 <0>         0.0523
     45 H20         8.7698   -1.5013    0.1838 H         1 <0>         0.0523
     46 H21         8.4920   -3.1850   -0.3097 H         1 <0>         0.0523
@<TRIPOS>BOND
     1    1    4 2
     2    1    8 1
     3    1   12 1
     4    2   11 1
     5    2   14 1
     6    3   19 1
     7    3   25 1
     8    5   12 1
     9    5   13 2
    10    5   32 1
    11    6   12 1
    12    6   16 2
    13    7    9 ar
    14    7   21 ar
    15    8    9 1
    16    8   26 1
    17    8   27 1
    18    9   10 ar
    19   10   11 ar
    20   10   17 1
    21   11   18 ar
    22   13   16 ar
    23   13   20 ar
    24   14   15 1
    25   14   28 1
    26   14   29 1
    27   15   19 1
    28   15   30 1
    29   15   31 1
    30   16   22 ar
    31   17   33 1
    32   17   34 1
    33   17   35 1
    34   18   21 ar
    35   18   36 1
    36   19   37 1
    37   19   38 1
    38   20   23 ar
    39   20   39 1
    40   21   40 1
    41   22   24 ar
    42   22   41 1
    43   23   24 ar
    44   23   42 1
    45   24   43 1
    46   25   44 1
    47   25   45 1
    48   25   46 1
