@<TRIPOS>MOLECULE
DB01280
   36    38     0     0     0
SMALL
USER_CHARGES

@<TRIPOS>ATOM
      1 O1          1.7463   -0.0809    1.1936 O.3       1 <0>        -0.3457
      2 O2          1.4713   -0.5699   -1.7859 O.3       1 <0>        -0.3847
      3 O3          4.3906   -1.3907    0.1554 O.3       1 <0>        -0.3864
      4 O4          2.1444    2.6751    1.1335 O.3       1 <0>        -0.3924
      5 O5         -4.5486   -1.1155    0.0450 O.3       1 <0>        -0.4781
      6 N1          0.0268   -1.5441    0.4390 N.pl3     1 <0>        -0.2854
      7 N2         -1.9222   -2.6375    0.3966 N.2       1 <0>        -0.2287
      8 N3         -0.7753    0.7320    0.1523 N.2       1 <0>        -0.1947
      9 N4         -3.2071    0.8031   -0.0414 N.2       1 <0>        -0.1777
     10 N5         -1.9152    2.7550   -0.1355 N.pl3     1 <0>        -0.3273
     11 C1          2.2103   -1.2850   -0.8040 C.3       1 <0>         0.1285
     12 C2          1.4658   -1.3241    0.5272 C.3       1 <0>         0.1667
     13 C3          3.4494   -0.4956   -0.4332 C.3       1 <0>         0.1135
     14 C4          2.9492    0.4826    0.6316 C.3       1 <0>         0.1126
     15 C5          2.6044    1.8561    0.0728 C.3       1 <0>         0.0730
     16 C6         -0.9446   -0.5935    0.2704 C.2       1 <0>         0.1712
     17 C7         -0.6157   -2.7561    0.5085 C.cat     1 <0>         0.1005
     18 C8         -2.1418   -1.2911    0.2474 C.2       1 <0>         0.1693
     19 C9         -3.3030   -0.5424    0.0845 C.2       1 <0>         0.2474
     20 C10        -1.9674    1.3487   -0.0003 C.2       1 <0>         0.2176
     21 C11        -5.6518   -0.2349   -0.1265 C.3       1 <0>         0.0805
     22 H1          2.4112   -2.2928   -1.1811 H         1 <0>         0.0665
     23 H2          1.8702   -2.1167    1.1697 H         1 <0>         0.0866
     24 H3          3.9311    0.0011   -1.2811 H         1 <0>         0.0647
     25 H4          3.6609    0.5896    1.4584 H         1 <0>         0.0647
     26 H5          1.8061    1.8019   -0.6726 H         1 <0>         0.0584
     27 H6          3.4846    2.3258   -0.3768 H         1 <0>         0.0584
     28 H7          2.0194   -0.5258   -2.5879 H         1 <0>         0.2101
     29 H8          5.1612   -0.8638    0.4275 H         1 <0>         0.2100
     30 H9         -0.0779   -3.6851    0.6393 H         1 <0>         0.1030
     31 H10         1.9319    3.5445    0.7534 H         1 <0>         0.2095
     32 H11        -1.0194    3.2226   -0.1138 H         1 <0>         0.1452
     33 H12        -2.7740    3.2747   -0.2535 H         1 <0>         0.1452
     34 H13        -5.7213    0.4726    0.7066 H         1 <0>         0.0660
     35 H14        -6.5657   -0.8360   -0.1374 H         1 <0>         0.0660
     36 H15        -5.5840    0.2962   -1.0819 H         1 <0>         0.0660
@<TRIPOS>BOND
     1    1   12 1
     2    1   14 1
     3    2   11 1
     4    2   28 1
     5    3   13 1
     6    3   29 1
     7    4   15 1
     8    4   31 1
     9    5   19 1
    10    5   21 1
    11    6   12 1
    12    6   16 1
    13    6   17 2
    14    7   17 1
    15    7   18 2
    16    8   16 2
    17    8   20 1
    18    9   19 1
    19    9   20 2
    20   10   20 1
    21   10   32 1
    22   10   33 1
    23   11   12 1
    24   11   13 1
    25   11   22 1
    26   12   23 1
    27   13   14 1
    28   13   24 1
    29   14   15 1
    30   14   25 1
    31   15   26 1
    32   15   27 1
    33   16   18 1
    34   17   30 1
    35   18   19 2
    36   21   34 1
    37   21   35 1
    38   21   36 1
