@<TRIPOS>MOLECULE
DB01175
   45    47     0     0     0
SMALL
USER_CHARGES

@<TRIPOS>ATOM
      1 F1         -0.4162    5.6345   -0.0599 F         1 <0>        -0.2055
      2 O1         -0.6781   -0.3703   -1.6084 O.3       1 <0>        -0.3595
      3 N1          4.1464   -0.5413    0.1446 N.3       1 <0>        -0.3083
      4 N2         -6.9634   -2.7114    0.8293 N.1       1 <0>        -0.1909
      5 C1         -0.7802    0.0279   -0.2043 C.3       1 <0>         0.1201
      6 C2          0.3663   -0.6172    0.5654 C.3       1 <0>        -0.0142
      7 C3         -2.1275   -0.4820    0.2177 C.ar      1 <0>        -0.0060
      8 C4         -2.6995   -1.2043   -0.8204 C.ar      1 <0>        -0.0144
      9 C5          1.7194   -0.2565   -0.0451 C.3       1 <0>        -0.0370
     10 C6         -0.6836    1.5168   -0.1651 C.ar      1 <0>        -0.0113
     11 C7         -1.7785   -1.2337   -1.9792 C.3       1 <0>         0.0747
     12 C8          2.8645   -0.8784    0.7522 C.3       1 <0>        -0.0016
     13 C9         -2.7899   -0.3280    1.4267 C.ar      1 <0>        -0.0540
     14 C10        -3.9459   -1.7920   -0.6888 C.ar      1 <0>        -0.0386
     15 C11        -0.2589    2.1572    0.9980 C.ar      1 <0>        -0.0528
     16 C12        -1.0182    2.2650   -1.2928 C.ar      1 <0>        -0.0528
     17 C13        -4.0499   -0.9113    1.5735 C.ar      1 <0>        -0.0440
     18 C14        -4.6252   -1.6387    0.5210 C.ar      1 <0>         0.0521
     19 C15        -0.1688    3.5487    1.0337 C.ar      1 <0>        -0.0261
     20 C16        -0.9282    3.6565   -1.2573 C.ar      1 <0>        -0.0261
     21 C17        -0.5037    4.2983   -0.0940 C.ar      1 <0>         0.1234
     22 C18         4.2002   -1.0130   -1.2402 C.3       1 <0>        -0.0131
     23 C19         5.2500   -1.1125    0.9187 C.3       1 <0>        -0.0131
     24 C20        -5.9150   -2.2306    0.6910 C.1       1 <0>         0.0992
     25 H1          0.3444   -0.4022    1.6396 H         1 <0>         0.0300
     26 H2          0.2645   -1.7107    0.4958 H         1 <0>         0.0300
     27 H3          1.7162   -0.6284   -1.0743 H         1 <0>         0.0279
     28 H4          1.8736    0.8267   -0.0909 H         1 <0>         0.0279
     29 H5         -1.3841   -2.2377   -2.1592 H         1 <0>         0.0610
     30 H6         -2.2396   -0.8347   -2.8865 H         1 <0>         0.0610
     31 H7          2.8300   -0.4873    1.7769 H         1 <0>         0.0426
     32 H8          2.7288   -1.9663    0.8149 H         1 <0>         0.0426
     33 H9         -2.3477    0.2278    2.2464 H         1 <0>         0.0622
     34 H10        -4.3751   -2.3570   -1.5110 H         1 <0>         0.0634
     35 H11        -0.0157    1.6208    1.9086 H         1 <0>         0.0622
     36 H12        -1.3693    1.8066   -2.2127 H         1 <0>         0.0622
     37 H13        -4.5773   -0.7944    2.5178 H         1 <0>         0.0630
     38 H14         0.1560    4.0497    1.9409 H         1 <0>         0.0646
     39 H15        -1.1919    4.2412   -2.1337 H         1 <0>         0.0646
     40 H16         3.5911   -0.3951   -1.9071 H         1 <0>         0.0391
     41 H17         3.9025   -2.0633   -1.3395 H         1 <0>         0.0391
     42 H18         5.2202   -0.9217   -1.6340 H         1 <0>         0.0391
     43 H19         5.2137   -2.2077    0.9441 H         1 <0>         0.0391
     44 H20         5.2288   -0.7423    1.9498 H         1 <0>         0.0391
     45 H21         6.2148   -0.8078    0.4979 H         1 <0>         0.0391
@<TRIPOS>BOND
     1    1   21 1
     2    2    5 1
     3    2   11 1
     4    3   12 1
     5    3   22 1
     6    3   23 1
     7    4   24 3
     8    5    6 1
     9    5    7 1
    10    5   10 1
    11    6    9 1
    12    6   25 1
    13    6   26 1
    14    7    8 ar
    15    7   13 ar
    16    8   11 1
    17    8   14 ar
    18    9   12 1
    19    9   27 1
    20    9   28 1
    21   10   15 ar
    22   10   16 ar
    23   11   29 1
    24   11   30 1
    25   12   31 1
    26   12   32 1
    27   13   17 ar
    28   13   33 1
    29   14   18 ar
    30   14   34 1
    31   15   19 ar
    32   15   35 1
    33   16   20 ar
    34   16   36 1
    35   17   18 ar
    36   17   37 1
    37   18   24 1
    38   19   21 ar
    39   19   38 1
    40   20   21 ar
    41   20   39 1
    42   22   40 1
    43   22   41 1
    44   22   42 1
    45   23   43 1
    46   23   44 1
    47   23   45 1
