@<TRIPOS>MOLECULE
DB01178
   29    30     0     0     0
SMALL
USER_CHARGES

@<TRIPOS>ATOM
      1 Cl1         5.2794    0.1262   -1.2482 Cl        1 <0>        -0.0835
      2 S1         -1.0331   -1.8420    0.4003 S.o2      1 <0>        -0.0073
      3 O1         -1.3397   -2.5415    1.6338 O.2       1 <0>        -0.1722
      4 O2         -0.2142   -2.4716   -0.6189 O.2       1 <0>        -0.1722
      5 O3         -2.6816    2.0582   -0.9021 O.2       1 <0>        -0.2755
      6 N1         -1.2038    0.9476    0.5087 N.am      1 <0>        -0.2790
      7 C1         -0.3661   -0.2277    0.8247 C.3       1 <0>         0.1693
      8 C2         -2.5759   -1.4237   -0.3654 C.3       1 <0>         0.0764
      9 C3         -2.3742   -0.2597   -1.3084 C.3       1 <0>         0.0436
     10 C4          1.0543   -0.1400    0.3025 C.ar      1 <0>        -0.0057
     11 C5         -2.1099    1.0231   -0.5503 C.2       1 <0>         0.2185
     12 C6         -0.9556    2.1443    1.3095 C.3       1 <0>         0.0052
     13 C7          2.0876   -0.7766    0.9876 C.ar      1 <0>        -0.0538
     14 C8          1.3239    0.5785   -0.8610 C.ar      1 <0>        -0.0538
     15 C9          3.3948   -0.6946    0.5075 C.ar      1 <0>        -0.0430
     16 C10         2.6309    0.6604   -1.3411 C.ar      1 <0>        -0.0430
     17 C11         3.6664    0.0240   -0.6568 C.ar      1 <0>         0.0410
     18 H1         -0.3195   -0.2450    1.9227 H         1 <0>         0.0797
     19 H2         -3.2882   -1.1812    0.4299 H         1 <0>         0.0505
     20 H3         -2.9269   -2.3121   -0.8983 H         1 <0>         0.0505
     21 H4         -3.2863   -0.1181   -1.8995 H         1 <0>         0.0374
     22 H5         -1.5482   -0.4308   -2.0067 H         1 <0>         0.0374
     23 H6          0.0675    2.4891    1.1377 H         1 <0>         0.0429
     24 H7         -1.0865    1.8963    2.3668 H         1 <0>         0.0429
     25 H8         -1.6456    2.9525    1.0537 H         1 <0>         0.0429
     26 H9          1.8887   -1.3397    1.8956 H         1 <0>         0.0622
     27 H10         0.5423    1.0776   -1.4244 H         1 <0>         0.0622
     28 H11         4.1916   -1.1955    1.0511 H         1 <0>         0.0632
     29 H12         2.8278    1.2220   -2.2508 H         1 <0>         0.0632
@<TRIPOS>BOND
     1    1   17 1
     2    2    3 2
     3    2    4 2
     4    2    7 1
     5    2    8 1
     6    5   11 2
     7    6    7 1
     8    6   11 am
     9    6   12 1
    10    7   10 1
    11    7   18 1
    12    8    9 1
    13    8   19 1
    14    8   20 1
    15    9   11 1
    16    9   21 1
    17    9   22 1
    18   10   13 ar
    19   10   14 ar
    20   12   23 1
    21   12   24 1
    22   12   25 1
    23   13   15 ar
    24   13   26 1
    25   14   16 ar
    26   14   27 1
    27   15   17 ar
    28   15   28 1
    29   16   17 ar
    30   16   29 1
