@<TRIPOS>MOLECULE
DB01329
   71    75     0     0     0
SMALL
USER_CHARGES

@<TRIPOS>ATOM
      1 S1          2.6203    0.3497   -1.5433 S.3       1 <0>        -0.1311
      2 S2          6.9772   -0.0572    0.4403 S.3       1 <0>        -0.0801
      3 O1          1.7512   -3.6760    0.6134 O.2       1 <0>        -0.2731
      4 O2         -1.5417   -0.5738   -1.7318 O.2       1 <0>        -0.2734
      5 O3          4.7313   -4.3233   -0.2661 O.3       1 <0>        -0.4763
      6 O4          5.4875   -2.8664    1.3261 O.2       1 <0>        -0.2437
      7 O5         -3.2338   -1.1881    1.7855 O.2       1 <0>        -0.2522
      8 O6         -5.3195    1.4571   -0.7587 O.2       1 <0>        -0.2645
      9 O7         -7.8881    1.7251   -0.3238 O.2       1 <0>        -0.2649
     10 O8          0.3393    5.8817   -0.5039 O.3       1 <0>        -0.5068
     11 N1          2.9438   -2.1616   -0.7449 N.am      1 <0>        -0.2490
     12 N2          0.1701   -0.9385   -0.2111 N.am      1 <0>        -0.2999
     13 N3         -3.0234    0.5643    0.3101 N.am      1 <0>        -0.2836
     14 N4         -5.1772   -0.2594    0.8579 N.am      1 <0>        -0.2167
     15 N5         -7.9860   -0.4514    0.5116 N.am      1 <0>        -0.2925
     16 N6          9.5808    0.5025    1.1904 N.pl3     1 <0>        -0.2233
     17 N7          9.4588   -0.6242   -0.6584 N.2       1 <0>        -0.1015
     18 N8         10.8514    0.3186    0.8054 N.2       1 <0>        -0.0435
     19 N9         10.7704   -0.3713   -0.3258 N.2       1 <0>        -0.0222
     20 C1          2.2145   -1.4001   -1.7424 C.3       1 <0>         0.1042
     21 C2          0.9302   -1.8912   -1.0389 C.3       1 <0>         0.1284
     22 C3          1.8814   -2.8076   -0.2173 C.2       1 <0>         0.2440
     23 C4          4.2887   -2.0866   -0.5725 C.2       1 <0>         0.1228
     24 C5          5.0164   -1.0828   -1.1174 C.2       1 <0>        -0.0211
     25 C6          4.3962    0.0899   -1.8737 C.3       1 <0>         0.0196
     26 C7         -1.0169   -0.3571   -0.6412 C.2       1 <0>         0.2386
     27 C8          6.5205   -0.9749   -1.0398 C.3       1 <0>         0.0253
     28 C9         -1.5815    0.6287    0.3737 C.3       1 <0>         0.1261
     29 C10         4.9092   -3.1068    0.2856 C.2       1 <0>         0.3514
     30 C11        -1.0689    2.0306    0.1400 C.ar      1 <0>        -0.0181
     31 C12        -3.7642   -0.3614    1.0377 C.2       1 <0>         0.3098
     32 C13        -6.0006   -1.1079    1.7167 C.3       1 <0>         0.0401
     33 C14        -7.2186   -1.5950    0.9632 C.3       1 <0>         0.0314
     34 C15        -1.2936    2.6597   -1.0845 C.ar      1 <0>        -0.0529
     35 C16        -0.3712    2.6958    1.1482 C.ar      1 <0>        -0.0529
     36 C17        -5.8383    0.6629    0.0190 C.2       1 <0>         0.3091
     37 C18        -7.3489    0.6942    0.0626 C.2       1 <0>         0.3022
     38 C19         8.7400   -0.0751    0.2934 C.cat     1 <0>         0.2094
     39 C20        -9.4330   -0.5795    0.4648 C.3       1 <0>         0.0123
     40 C21        -0.8205    3.9538   -1.3009 C.ar      1 <0>        -0.0199
     41 C22         0.1018    3.9900    0.9318 C.ar      1 <0>        -0.0199
     42 C23        -0.1228    4.6190   -0.2928 C.ar      1 <0>         0.1169
     43 C24        -9.8944   -1.1851   -0.8445 C.3       1 <0>        -0.0493
     44 C25         9.2842    1.2265    2.4007 C.3       1 <0>         0.0346
     45 H1          2.3422   -1.7932   -2.7578 H         1 <0>         0.0644
     46 H2          0.2729   -2.4766   -1.6939 H         1 <0>         0.0622
     47 H3          0.5329   -0.6727    0.7013 H         1 <0>         0.1496
     48 H4          4.5376   -0.0582   -2.9499 H         1 <0>         0.0423
     49 H5          4.8941    1.0258   -1.5998 H         1 <0>         0.0423
     50 H6          6.9141   -0.4799   -1.9351 H         1 <0>         0.0427
     51 H7          6.9770   -1.9705   -1.0090 H         1 <0>         0.0427
     52 H8         -1.2853    0.2957    1.3767 H         1 <0>         0.0646
     53 H9         -3.5008    1.1806   -0.3376 H         1 <0>         0.1513
     54 H10        -5.4298   -1.9653    2.0867 H         1 <0>         0.0485
     55 H11        -6.2939   -0.5017    2.5828 H         1 <0>         0.0485
     56 H12        -6.9363   -2.1802    0.0807 H         1 <0>         0.0480
     57 H13        -7.8325   -2.2209    1.6189 H         1 <0>         0.0480
     58 H14         5.1313   -5.0365    0.2758 H         1 <0>         0.2954
     59 H15        -1.8383    2.1616   -1.8817 H         1 <0>         0.0622
     60 H16        -0.1879    2.2187    2.1072 H         1 <0>         0.0622
     61 H17        -9.8768    0.4174    0.5662 H         1 <0>         0.0462
     62 H18        -9.7751   -1.1759    1.3172 H         1 <0>         0.0462
     63 H19        -1.0027    4.4331   -2.2590 H         1 <0>         0.0654
     64 H20         0.6451    4.5029    1.7208 H         1 <0>         0.0654
     65 H21       -10.9862   -1.2567   -0.8682 H         1 <0>         0.0245
     66 H22        -9.4837   -2.1911   -0.9800 H         1 <0>         0.0245
     67 H23        -9.5731   -0.5769   -1.6967 H         1 <0>         0.0245
     68 H24         8.7415    0.5632    3.0784 H         1 <0>         0.0474
     69 H25        10.2170    1.5499    2.8707 H         1 <0>         0.0474
     70 H26         8.6796    2.0997    2.1442 H         1 <0>         0.0474
     71 H27         0.0950    6.1602   -1.4033 H         1 <0>         0.2921
@<TRIPOS>BOND
     1    1   20 1
     2    1   25 1
     3    2   27 1
     4    2   38 1
     5    3   22 2
     6    4   26 2
     7    5   29 1
     8    5   58 1
     9    6   29 2
    10    7   31 2
    11    8   36 2
    12    9   37 2
    13   10   42 1
    14   10   71 1
    15   11   20 1
    16   11   22 am
    17   11   23 1
    18   12   21 1
    19   12   26 am
    20   12   47 1
    21   13   28 1
    22   13   31 am
    23   13   53 1
    24   14   31 am
    25   14   32 1
    26   14   36 am
    27   15   33 1
    28   15   37 am
    29   15   39 1
    30   16   18 1
    31   16   38 2
    32   16   44 1
    33   17   19 2
    34   17   38 1
    35   18   19 1
    36   20   21 1
    37   20   45 1
    38   21   22 1
    39   21   46 1
    40   23   24 2
    41   23   29 1
    42   24   25 1
    43   24   27 1
    44   25   48 1
    45   25   49 1
    46   26   28 1
    47   27   50 1
    48   27   51 1
    49   28   30 1
    50   28   52 1
    51   30   34 ar
    52   30   35 ar
    53   32   33 1
    54   32   54 1
    55   32   55 1
    56   33   56 1
    57   33   57 1
    58   34   40 ar
    59   34   59 1
    60   35   41 ar
    61   35   60 1
    62   36   37 1
    63   39   43 1
    64   39   61 1
    65   39   62 1
    66   40   42 ar
    67   40   63 1
    68   41   42 ar
    69   41   64 1
    70   43   65 1
    71   43   66 1
    72   43   67 1
    73   44   68 1
    74   44   69 1
    75   44   70 1
