@<TRIPOS>MOLECULE
DB01171
   35    36     0     0     0
SMALL
USER_CHARGES

@<TRIPOS>ATOM
      1 Cl1         7.5631    0.1403    1.0596 Cl        1 <0>        -0.0835
      2 O1         -5.3029    0.1513    0.4971 O.3       1 <0>        -0.3772
      3 O2          1.6634   -1.1177   -1.7439 O.2       1 <0>        -0.2702
      4 N1         -2.5591   -0.2771   -0.1272 N.3       1 <0>        -0.2965
      5 N2          1.0530    0.6136   -0.3297 N.am      1 <0>        -0.3101
      6 C1         -3.1031    1.0755    0.0572 C.3       1 <0>         0.0225
      7 C2         -3.3243   -1.2411    0.6756 C.3       1 <0>         0.0225
      8 C3         -1.1413   -0.3184    0.2249 C.3       1 <0>         0.0146
      9 C4         -4.5858    1.0913   -0.3039 C.3       1 <0>         0.0604
     10 C5         -4.8014   -1.1711    0.2990 C.3       1 <0>         0.0604
     11 C6         -0.3606    0.6214   -0.6849 C.3       1 <0>         0.0247
     12 C7          1.9450   -0.2691   -0.9019 C.2       1 <0>         0.2441
     13 C8          3.3445   -0.1675   -0.4137 C.ar      1 <0>         0.0368
     14 C9          4.1506   -1.2857   -0.4636 C.ar      1 <0>        -0.0483
     15 C10         3.7931    1.0423    0.0747 C.ar      1 <0>        -0.0483
     16 C11         5.4644   -1.1900   -0.0047 C.ar      1 <0>        -0.0427
     17 C12         5.1069    1.1379    0.5335 C.ar      1 <0>        -0.0427
     18 C13         5.9425    0.0217    0.4939 C.ar      1 <0>         0.0410
     19 H1         -2.6322    1.8104   -0.6001 H         1 <0>         0.0449
     20 H2         -2.9745    1.4038    1.0966 H         1 <0>         0.0449
     21 H3         -3.2098   -1.0213    1.7451 H         1 <0>         0.0449
     22 H4         -2.9602   -2.2592    0.4971 H         1 <0>         0.0449
     23 H5         -0.9797   -0.0488    1.2772 H         1 <0>         0.0442
     24 H6         -0.7558   -1.3379    0.0958 H         1 <0>         0.0442
     25 H7         -5.0072    2.0827   -0.1087 H         1 <0>         0.0572
     26 H8         -4.7472    0.8656   -1.3653 H         1 <0>         0.0572
     27 H9         -4.9687   -1.4741   -0.7418 H         1 <0>         0.0572
     28 H10        -5.3810   -1.8457    0.9373 H         1 <0>         0.0572
     29 H11        -0.4688    0.3348   -1.7372 H         1 <0>         0.0475
     30 H12        -0.6499    1.6688   -0.5763 H         1 <0>         0.0475
     31 H13         1.3329    1.2348    0.4214 H         1 <0>         0.1490
     32 H14         3.7922   -2.2377   -0.8438 H         1 <0>         0.0625
     33 H15         3.1892    1.9435    0.0891 H         1 <0>         0.0625
     34 H16         6.1040   -2.0682   -0.0404 H         1 <0>         0.0632
     35 H17         5.4689    2.0905    0.9119 H         1 <0>         0.0632
@<TRIPOS>BOND
     1    1   18 1
     2    2    9 1
     3    2   10 1
     4    3   12 2
     5    4    6 1
     6    4    7 1
     7    4    8 1
     8    5   11 1
     9    5   12 am
    10    5   31 1
    11    6    9 1
    12    6   19 1
    13    6   20 1
    14    7   10 1
    15    7   21 1
    16    7   22 1
    17    8   11 1
    18    8   23 1
    19    8   24 1
    20    9   25 1
    21    9   26 1
    22   10   27 1
    23   10   28 1
    24   11   29 1
    25   11   30 1
    26   12   13 1
    27   13   14 ar
    28   13   15 ar
    29   14   16 ar
    30   14   32 1
    31   15   17 ar
    32   15   33 1
    33   16   18 ar
    34   16   34 1
    35   17   18 ar
    36   17   35 1
