@<TRIPOS>MOLECULE
DB01057
   38    37     0     0     0
SMALL
USER_CHARGES

@<TRIPOS>ATOM
      1 S1          0.3166   -1.1537    0.9233 S.3       1 <0>        -0.0359
      2 P1          1.9057   -0.8483   -0.4116 P.3       1 <0>         0.3914
      3 O1          3.2953   -1.2617    0.3249 O.3       1 <0>        -0.3005
      4 O2          2.1143    0.7359   -0.7114 O.3       1 <0>        -0.3005
      5 O3          1.6812   -1.6283   -1.6813 O.2       1 <0>        -0.2458
      6 N1         -3.6300   -0.2173    0.0824 N.4       1 <0>         0.2375
      7 C1         -2.4227   -0.7116    0.8659 C.3       1 <0>        -0.0211
      8 C2         -3.7277   -0.9776   -1.2324 C.3       1 <0>        -0.0418
      9 C3         -4.8937   -0.4497    0.8981 C.3       1 <0>        -0.0418
     10 C4         -3.4763    1.2699   -0.2020 C.3       1 <0>        -0.0418
     11 C5         -1.1574   -0.5643    0.0367 C.3       1 <0>         0.0449
     12 C6          4.5161   -1.0888   -0.3741 C.3       1 <0>         0.0549
     13 C7          2.3396    1.6371    0.3588 C.3       1 <0>         0.0549
     14 C8          5.6589   -1.5398    0.5104 C.3       1 <0>        -0.0410
     15 C9          2.4985    3.0353   -0.1991 C.3       1 <0>        -0.0410
     16 H1         -2.3708   -0.1280    1.7932 H         1 <0>         0.0823
     17 H2         -2.6090   -1.7620    1.1218 H         1 <0>         0.0823
     18 H3         -3.6529   -2.0495   -1.0263 H         1 <0>         0.0778
     19 H4         -4.7010   -0.7521   -1.6804 H         1 <0>         0.0778
     20 H5         -2.9451   -0.6452   -1.9189 H         1 <0>         0.0778
     21 H6         -4.8010    0.0964    1.8414 H         1 <0>         0.0778
     22 H7         -5.7514   -0.0815    0.3275 H         1 <0>         0.0778
     23 H8         -4.9927   -1.5234    1.0840 H         1 <0>         0.0778
     24 H9         -3.2630    1.7872    0.7379 H         1 <0>         0.0778
     25 H10        -2.6806    1.4332   -0.9324 H         1 <0>         0.0778
     26 H11        -4.4200    1.6327   -0.6222 H         1 <0>         0.0778
     27 H12        -1.1929   -1.1518   -0.8829 H         1 <0>         0.0434
     28 H13        -0.9521    0.4756   -0.2255 H         1 <0>         0.0434
     29 H14         4.4920   -1.6858   -1.2910 H         1 <0>         0.0562
     30 H15         4.6451   -0.0367   -0.6444 H         1 <0>         0.0562
     31 H16         1.4889    1.6118    1.0455 H         1 <0>         0.0562
     32 H17         3.2408    1.3460    0.9060 H         1 <0>         0.0562
     33 H18         6.6183   -1.4244   -0.0015 H         1 <0>         0.0252
     34 H19         5.6807   -0.9579    1.4378 H         1 <0>         0.0252
     35 H20         5.5345   -2.5895    0.7960 H         1 <0>         0.0252
     36 H21         2.6710    3.7589    0.6024 H         1 <0>         0.0252
     37 H22         3.3389    3.0770   -0.8999 H         1 <0>         0.0252
     38 H23         1.6039    3.3320   -0.7566 H         1 <0>         0.0252
@<TRIPOS>BOND
     1    1    2 1
     2    1   11 1
     3    2    3 1
     4    2    4 1
     5    2    5 2
     6    3   12 1
     7    4   13 1
     8    6    7 1
     9    6    8 1
    10    6    9 1
    11    6   10 1
    12    7   11 1
    13    7   16 1
    14    7   17 1
    15    8   18 1
    16    8   19 1
    17    8   20 1
    18    9   21 1
    19    9   22 1
    20    9   23 1
    21   10   24 1
    22   10   25 1
    23   10   26 1
    24   11   27 1
    25   11   28 1
    26   12   14 1
    27   12   29 1
    28   12   30 1
    29   13   15 1
    30   13   31 1
    31   13   32 1
    32   14   33 1
    33   14   34 1
    34   14   35 1
    35   15   36 1
    36   15   37 1
    37   15   38 1
