@<TRIPOS>MOLECULE
DB01218
   63    65     0     0     0
SMALL
USER_CHARGES

@<TRIPOS>ATOM
      1 Cl1        -3.9421    4.7726    0.9341 Cl        1 <0>        -0.0829
      2 Cl2        -8.4179    2.0037    0.0790 Cl        1 <0>        -0.0835
      3 F1         -3.1650   -4.9996   -1.4431 F         1 <0>        -0.1659
      4 F2         -4.9162   -4.4927   -0.2683 F         1 <0>        -0.1659
      5 F3         -4.8278   -3.9509   -2.3724 F         1 <0>        -0.1659
      6 O1          0.0959    2.4814   -0.2556 O.3       1 <0>        -0.3871
      7 N1          2.5142    0.2449    0.7965 N.3       1 <0>        -0.3022
      8 C1          1.8340    1.1849    1.6806 C.3       1 <0>         0.0015
      9 C2          0.3213    0.9725    1.6134 C.3       1 <0>        -0.0099
     10 C3         -0.2472    1.1645    0.1927 C.3       1 <0>         0.0819
     11 C4          3.8404    0.7468    0.4335 C.3       1 <0>        -0.0011
     12 C5          2.6244   -1.0699    1.4301 C.3       1 <0>        -0.0011
     13 C6         -1.7343    1.0024    0.0934 C.ar      1 <0>        -0.0108
     14 C7          3.7227    1.8326   -0.6347 C.3       1 <0>        -0.0405
     15 C8          2.7999   -2.1566    0.3706 C.3       1 <0>        -0.0405
     16 C9         -2.3332   -0.2177   -0.2303 C.ar      1 <0>        -0.0116
     17 C10        -3.7472   -0.3138   -0.3085 C.ar      1 <0>        -0.0092
     18 C11        -2.5064    2.1325    0.3418 C.ar      1 <0>        -0.0464
     19 C12        -4.5464    0.8560   -0.0514 C.ar      1 <0>        -0.0074
     20 C13        -3.9008    2.0773    0.2742 C.ar      1 <0>         0.0015
     21 C14         5.0968    2.3864   -1.0134 C.3       1 <0>        -0.0548
     22 C15         2.9388   -3.5373    1.0130 C.3       1 <0>        -0.0548
     23 C16        -1.5251   -1.3410   -0.4759 C.ar      1 <0>        -0.0531
     24 C17        -4.2809   -1.5839   -0.6420 C.ar      1 <0>        -0.0418
     25 C18        -3.4658   -2.6931   -0.8835 C.ar      1 <0>         0.0554
     26 C19        -5.9630    0.8787   -0.1008 C.ar      1 <0>        -0.0350
     27 C20        -2.0876   -2.5714   -0.8005 C.ar      1 <0>        -0.0495
     28 C21        -4.6521    3.2371    0.5304 C.ar      1 <0>         0.0501
     29 C22         4.9913    3.4429   -2.1016 C.3       1 <0>        -0.0652
     30 C23         3.0783   -4.6288   -0.0363 C.3       1 <0>        -0.0652
     31 C24        -6.6982    2.0391    0.1565 C.ar      1 <0>         0.0430
     32 C25        -6.0423    3.2189    0.4721 C.ar      1 <0>        -0.0244
     33 C26        -4.0794   -4.0071   -1.2324 C.3       1 <0>         0.4174
     34 H1          2.1789    1.0758    2.7177 H         1 <0>         0.0427
     35 H2          2.0320    2.2297    1.4202 H         1 <0>         0.0427
     36 H3          0.0334   -0.0104    2.0021 H         1 <0>         0.0306
     37 H4         -0.1400    1.7089    2.2855 H         1 <0>         0.0306
     38 H5          0.2699    0.5162   -0.5178 H         1 <0>         0.0644
     39 H6          4.3731    1.1270    1.3155 H         1 <0>         0.0426
     40 H7          4.4718   -0.0447    0.0158 H         1 <0>         0.0426
     41 H8          3.4492   -1.0942    2.1550 H         1 <0>         0.0426
     42 H9          1.7188   -1.3208    1.9940 H         1 <0>         0.0426
     43 H10         3.0999    2.6686   -0.3006 H         1 <0>         0.0277
     44 H11         3.2395    1.4155   -1.5277 H         1 <0>         0.0277
     45 H12         1.9348   -2.1547   -0.3042 H         1 <0>         0.0277
     46 H13         3.6840   -1.9760   -0.2500 H         1 <0>         0.0277
     47 H14        -2.0050    3.0557    0.6179 H         1 <0>         0.0628
     48 H15         5.5774    2.8248   -0.1312 H         1 <0>         0.0263
     49 H16         5.7428    1.5738   -1.3656 H         1 <0>         0.0263
     50 H17         3.8154   -3.5555    1.6709 H         1 <0>         0.0263
     51 H18         2.0612   -3.7496    1.6347 H         1 <0>         0.0263
     52 H19        -0.4432   -1.3251   -0.4029 H         1 <0>         0.0624
     53 H20        -5.3557   -1.7298   -0.7197 H         1 <0>         0.0629
     54 H21        -0.1975    2.5683   -1.1792 H         1 <0>         0.2102
     55 H22        -6.5182   -0.0241   -0.3448 H         1 <0>         0.0638
     56 H23        -1.4340   -3.4206   -0.9784 H         1 <0>         0.0623
     57 H24         4.5431    3.0274   -3.0098 H         1 <0>         0.0230
     58 H25         4.3782    4.2874   -1.7708 H         1 <0>         0.0230
     59 H26         5.9849    3.8243   -2.3572 H         1 <0>         0.0230
     60 H27         2.2013   -4.6580   -0.6907 H         1 <0>         0.0230
     61 H28         3.1756   -5.6069    0.4450 H         1 <0>         0.0230
     62 H29         3.9653   -4.4658   -0.6567 H         1 <0>         0.0230
     63 H30        -6.6161    4.1213    0.6715 H         1 <0>         0.0647
@<TRIPOS>BOND
     1    1   28 1
     2    2   31 1
     3    3   33 1
     4    4   33 1
     5    5   33 1
     6    6   10 1
     7    6   54 1
     8    7    8 1
     9    7   11 1
    10    7   12 1
    11    8    9 1
    12    8   34 1
    13    8   35 1
    14    9   10 1
    15    9   36 1
    16    9   37 1
    17   10   13 1
    18   10   38 1
    19   11   14 1
    20   11   39 1
    21   11   40 1
    22   12   15 1
    23   12   41 1
    24   12   42 1
    25   13   16 ar
    26   13   18 ar
    27   14   21 1
    28   14   43 1
    29   14   44 1
    30   15   22 1
    31   15   45 1
    32   15   46 1
    33   16   17 ar
    34   16   23 ar
    35   17   19 ar
    36   17   24 ar
    37   18   20 ar
    38   18   47 1
    39   19   20 ar
    40   19   26 ar
    41   20   28 ar
    42   21   29 1
    43   21   48 1
    44   21   49 1
    45   22   30 1
    46   22   50 1
    47   22   51 1
    48   23   27 ar
    49   23   52 1
    50   24   25 ar
    51   24   53 1
    52   25   27 ar
    53   25   33 1
    54   26   31 ar
    55   26   55 1
    56   27   56 1
    57   28   32 ar
    58   29   57 1
    59   29   58 1
    60   29   59 1
    61   30   60 1
    62   30   61 1
    63   30   62 1
    64   31   32 ar
    65   32   63 1
