@<TRIPOS>MOLECULE
DB01116
   51    55     0     0     0
SMALL
USER_CHARGES

@<TRIPOS>ATOM
      1 S1          2.6915    2.2707    0.8826 S.3       1 <0>        -0.0035
      2 O1         -1.1904   -0.5222    2.5472 O.2       1 <0>        -0.2524
      3 N1          0.5511   -0.8679    0.9945 N.am      1 <0>        -0.2714
      4 N2         -0.4257    1.1665    1.0833 N.am      1 <0>        -0.2716
      5 C1          1.3502   -0.0220    0.1145 C.3       1 <0>         0.0982
      6 C2          2.6474    0.4215    0.8196 C.3       1 <0>         0.1405
      7 C3          0.4386    1.1912   -0.0887 C.3       1 <0>         0.0957
      8 C4          1.3023    2.4181   -0.2805 C.3       1 <0>         0.1305
      9 C5          3.9139   -0.0177    0.0866 C.3       1 <0>         0.0012
     10 C6          4.0419    2.3558   -0.3503 C.3       1 <0>         0.1103
     11 C7          4.1512    0.9966   -1.0185 C.3       1 <0>        -0.0032
     12 C8         -0.4474   -0.1247    1.6591 C.2       1 <0>         0.3062
     13 C9          0.8802   -2.2548    1.2477 C.3       1 <0>         0.0417
     14 C10        -1.3690    2.2213    1.3914 C.3       1 <0>         0.0417
     15 C11         0.0733   -3.1891    0.3860 C.ar      1 <0>        -0.0300
     16 C12        -2.5681    2.1849    0.4817 C.ar      1 <0>        -0.0300
     17 C13        -1.1477   -3.6609    0.8471 C.ar      1 <0>        -0.0571
     18 C14         0.5621   -3.5658   -0.8569 C.ar      1 <0>        -0.0571
     19 C15        -2.5464    2.9015   -0.7066 C.ar      1 <0>        -0.0571
     20 C16        -3.6784    1.4355    0.8446 C.ar      1 <0>        -0.0571
     21 C17        -1.8952   -4.5268    0.0488 C.ar      1 <0>        -0.0615
     22 C18        -0.1852   -4.4317   -1.6552 C.ar      1 <0>        -0.0615
     23 C19        -3.6576    2.8679   -1.5491 C.ar      1 <0>        -0.0615
     24 C20        -4.7895    1.4019    0.0020 C.ar      1 <0>        -0.0615
     25 C21        -1.4140   -4.9122   -1.2025 C.ar      1 <0>        -0.0617
     26 C22        -4.7790    2.1180   -1.1950 C.ar      1 <0>        -0.0617
     27 H1          1.5353   -0.5471   -0.8285 H         1 <0>         0.0571
     28 H2          2.6852    0.0696    1.8569 H         1 <0>         0.0896
     29 H3         -0.2119    1.0369   -0.9584 H         1 <0>         0.0568
     30 H4          1.6774    2.4461   -1.3075 H         1 <0>         0.0860
     31 H5          0.7869    3.3617   -0.0908 H         1 <0>         0.0860
     32 H6          3.8324   -1.0365   -0.3060 H         1 <0>         0.0316
     33 H7          4.7650   -0.0048    0.7798 H         1 <0>         0.0316
     34 H8          4.9565    2.5731    0.2117 H         1 <0>         0.0840
     35 H9          3.8728    3.1718   -1.0576 H         1 <0>         0.0840
     36 H10         5.1333    0.8634   -1.4828 H         1 <0>         0.0312
     37 H11         3.3988    0.8866   -1.8076 H         1 <0>         0.0312
     38 H12         0.6778   -2.4688    2.3044 H         1 <0>         0.0514
     39 H13         1.9547   -2.4092    1.0969 H         1 <0>         0.0514
     40 H14        -0.8669    3.1928    1.3508 H         1 <0>         0.0514
     41 H15        -1.6997    2.0929    2.4296 H         1 <0>         0.0514
     42 H16        -1.5327   -3.3681    1.8197 H         1 <0>         0.0621
     43 H17         1.5179   -3.1971   -1.2188 H         1 <0>         0.0621
     44 H18        -1.6797    3.4905   -0.9920 H         1 <0>         0.0621
     45 H19        -3.6984    0.8736    1.7740 H         1 <0>         0.0621
     46 H20        -2.8520   -4.9007    0.4013 H         1 <0>         0.0618
     47 H21         0.1894   -4.7317   -2.6296 H         1 <0>         0.0618
     48 H22        -3.6495    3.4259   -2.4809 H         1 <0>         0.0618
     49 H23        -5.6627    0.8179    0.2777 H         1 <0>         0.0618
     50 H24        -1.9960   -5.5863   -1.8241 H         1 <0>         0.0618
     51 H25        -5.6441    2.0918   -1.8510 H         1 <0>         0.0618
@<TRIPOS>BOND
     1    1    6 1
     2    1    8 1
     3    1   10 1
     4    2   12 2
     5    3    5 1
     6    3   12 am
     7    3   13 1
     8    4    7 1
     9    4   12 am
    10    4   14 1
    11    5    6 1
    12    5    7 1
    13    5   27 1
    14    6    9 1
    15    6   28 1
    16    7    8 1
    17    7   29 1
    18    8   30 1
    19    8   31 1
    20    9   11 1
    21    9   32 1
    22    9   33 1
    23   10   11 1
    24   10   34 1
    25   10   35 1
    26   11   36 1
    27   11   37 1
    28   13   15 1
    29   13   38 1
    30   13   39 1
    31   14   16 1
    32   14   40 1
    33   14   41 1
    34   15   17 ar
    35   15   18 ar
    36   16   19 ar
    37   16   20 ar
    38   17   21 ar
    39   17   42 1
    40   18   22 ar
    41   18   43 1
    42   19   23 ar
    43   19   44 1
    44   20   24 ar
    45   20   45 1
    46   21   25 ar
    47   21   46 1
    48   22   25 ar
    49   22   47 1
    50   23   26 ar
    51   23   48 1
    52   24   26 ar
    53   24   49 1
    54   25   50 1
    55   26   51 1
