@<TRIPOS>MOLECULE
DB01212
   54    57     0     0     0
SMALL
USER_CHARGES

@<TRIPOS>ATOM
      1 S1          0.7082   -1.4355    1.8333 S.3       1 <0>        -0.1311
      2 S2         -3.4264    0.7776    0.7898 S.3       1 <0>        -0.0818
      3 S3          3.5207    3.9050   -0.9953 S.3       1 <0>        -0.0604
      4 O1          1.3317   -1.4811   -2.7735 O.2       1 <0>        -0.2731
      5 O2         -1.7809   -2.1018   -2.7803 O.3       1 <0>        -0.4763
      6 O3         -2.1863    0.0691   -2.1862 O.2       1 <0>        -0.2437
      7 O4          4.4211   -1.1226   -2.0050 O.2       1 <0>        -0.2683
      8 O5          6.2047   -1.4150    0.5219 O.3       1 <0>        -0.3964
      9 O6         -7.5429    0.7390    3.4075 O.2       1 <0>        -0.2598
     10 O7         -9.0995    1.3166    1.3827 O.2       1 <0>        -0.2605
     11 N1          0.1833   -1.8161   -0.7413 N.am      1 <0>        -0.2490
     12 N2          3.1147   -1.2171   -0.0571 N.am      1 <0>        -0.2963
     13 N3         -5.9429    1.0071   -0.2196 N.pl3     1 <0>        -0.2644
     14 N4          6.0222   -0.0257    0.4789 N.2       1 <0>        -0.0779
     15 N5         -5.6284    0.8170    2.1543 N.2       1 <0>        -0.1791
     16 N6         -7.3040    1.2108   -0.0679 N.am      1 <0>        -0.2573
     17 N7          5.4346    2.6849    0.2420 N.2       1 <0>        -0.2233
     18 N8          5.4662    5.0426    0.4166 N.pl3     1 <0>        -0.3375
     19 C1          0.8842   -2.4599    0.3548 C.3       1 <0>         0.1042
     20 C2          2.1711   -2.2538   -0.4739 C.3       1 <0>         0.1286
     21 C3          1.2143   -1.8016   -1.6139 C.2       1 <0>         0.2440
     22 C4         -1.1171   -1.4298   -0.6824 C.2       1 <0>         0.1228
     23 C5         -1.7780   -1.3484    0.4969 C.2       1 <0>        -0.0211
     24 C6         -1.1111   -1.5782    1.8512 C.3       1 <0>         0.0196
     25 C7         -3.2420   -1.0068    0.6372 C.3       1 <0>         0.0252
     26 C8         -1.7556   -1.0415   -1.9490 C.2       1 <0>         0.3514
     27 C9          4.1379   -0.7660   -0.8727 C.2       1 <0>         0.2684
     28 C10         4.9804    0.3019   -0.2243 C.2       1 <0>         0.1897
     29 C11        -5.1923    0.8781    0.9348 C.2       1 <0>         0.1872
     30 C12         4.6474    1.7236   -0.3614 C.2       1 <0>         0.1067
     31 C13         3.5647    2.1924   -1.0757 C.2       1 <0>         0.0067
     32 C14        -5.4470    1.0736   -1.5820 C.3       1 <0>         0.0309
     33 C15        -6.9877    0.8848    2.3227 C.2       1 <0>         0.3384
     34 C16        -7.9071    1.1584    1.1625 C.2       1 <0>         0.3298
     35 C17         4.9354    3.8714   -0.0246 C.2       1 <0>         0.1562
     36 C18         7.3571   -1.6840    1.3054 C.3       1 <0>         0.1072
     37 H1          0.6019   -3.5116    0.4826 H         1 <0>         0.0644
     38 H2          2.6891   -3.1930   -0.7014 H         1 <0>         0.0622
     39 H3         -1.4645   -0.8412    2.5797 H         1 <0>         0.0423
     40 H4         -1.3843   -2.5712    2.2249 H         1 <0>         0.0423
     41 H5          3.0302   -0.8037    0.8686 H         1 <0>         0.1499
     42 H6         -3.6724   -1.5080    1.5116 H         1 <0>         0.0427
     43 H7         -3.8088   -1.3627   -0.2296 H         1 <0>         0.0427
     44 H8         -2.2004   -1.8865   -3.6405 H         1 <0>         0.2954
     45 H9          2.8150    1.6419   -1.6264 H         1 <0>         0.0716
     46 H10        -7.8304    1.3942   -0.9152 H         1 <0>         0.1903
     47 H11        -4.9281    0.1474   -1.8460 H         1 <0>         0.0473
     48 H12        -4.7600    1.9173   -1.7030 H         1 <0>         0.0473
     49 H13        -6.2533    1.2044   -2.3128 H         1 <0>         0.0473
     50 H14         8.2410   -1.2237    0.8529 H         1 <0>         0.0687
     51 H15         7.2189   -1.3126    2.3256 H         1 <0>         0.0687
     52 H16         7.5055   -2.7664    1.3431 H         1 <0>         0.0687
     53 H17         6.3013    5.0676    0.9923 H         1 <0>         0.1442
     54 H18         5.0487    5.9386    0.1872 H         1 <0>         0.1442
@<TRIPOS>BOND
     1    1   19 1
     2    1   24 1
     3    2   25 1
     4    2   29 1
     5    3   31 1
     6    3   35 1
     7    4   21 2
     8    5   26 1
     9    5   44 1
    10    6   26 2
    11    7   27 2
    12    8   14 1
    13    8   36 1
    14    9   33 2
    15   10   34 2
    16   11   19 1
    17   11   21 am
    18   11   22 1
    19   12   20 1
    20   12   27 am
    21   12   41 1
    22   13   16 2
    23   13   29 1
    24   13   32 1
    25   14   28 2
    26   15   29 2
    27   15   33 1
    28   16   34 am
    29   16   46 1
    30   17   30 1
    31   17   35 2
    32   18   35 1
    33   18   53 1
    34   18   54 1
    35   19   20 1
    36   19   37 1
    37   20   21 1
    38   20   38 1
    39   22   23 2
    40   22   26 1
    41   23   24 1
    42   23   25 1
    43   24   39 1
    44   24   40 1
    45   25   42 1
    46   25   43 1
    47   27   28 1
    48   28   30 1
    49   30   31 2
    50   31   45 1
    51   32   47 1
    52   32   48 1
    53   32   49 1
    54   33   34 1
    55   36   50 1
    56   36   51 1
    57   36   52 1
