@<TRIPOS>MOLECULE
DB01096
   41    42     0     0     0
SMALL
USER_CHARGES

@<TRIPOS>ATOM
      1 O1          4.6379    2.5510   -0.1312 O.3       1 <0>        -0.3902
      2 O2          4.6263   -2.7681    1.4463 O.3       1 <0>        -0.5760
      3 O3          5.7530   -0.8884    1.3178 O.2       1 <0>         0.0415
      4 N1          0.1747   -1.8701   -0.5401 N.pl3     1 <0>        -0.3394
      5 N2         -3.2238   -0.3558   -0.3399 N.3       1 <0>        -0.3120
      6 N3          4.7138   -1.5609    1.1196 N.pl3     1 <0>         0.0800
      7 C1         -1.0561   -1.2778   -1.0425 C.3       1 <0>         0.0334
      8 C2         -0.7421   -0.1302   -2.0074 C.3       1 <0>        -0.0294
      9 C3          0.1923    0.9055   -1.3827 C.3       1 <0>        -0.0242
     10 C4         -1.9377   -0.8498    0.1293 C.3       1 <0>         0.0145
     11 C5          1.3811    0.2451   -0.7304 C.ar      1 <0>        -0.0257
     12 C6          1.3115   -1.1017   -0.3227 C.ar      1 <0>         0.0371
     13 C7          2.5432    0.9928   -0.4920 C.ar      1 <0>        -0.0450
     14 C8         -4.0614    0.0628    0.7765 C.3       1 <0>         0.0020
     15 C9          2.4381   -1.6799    0.2809 C.ar      1 <0>         0.0370
     16 C10         3.6474    0.4036    0.1204 C.ar      1 <0>         0.0551
     17 C11         3.5964   -0.9333    0.5030 C.ar      1 <0>         0.2802
     18 C12        -5.3996    0.5891    0.2656 C.3       1 <0>        -0.0499
     19 C13        -3.3292    1.1252    1.5901 C.3       1 <0>        -0.0499
     20 C14         4.8674    1.2347    0.3534 C.3       1 <0>         0.0756
     21 H1         -1.5853   -2.0579   -1.6051 H         1 <0>         0.0510
     22 H2         -1.6533    0.3582   -2.3698 H         1 <0>         0.0287
     23 H3         -0.2486   -0.5512   -2.8949 H         1 <0>         0.0287
     24 H4         -0.3402    1.5007   -0.6320 H         1 <0>         0.0314
     25 H5          0.5295    1.5915   -2.1690 H         1 <0>         0.0314
     26 H6         -1.3843   -0.1026    0.7049 H         1 <0>         0.0442
     27 H7         -2.0908   -1.7110    0.7933 H         1 <0>         0.0442
     28 H8          0.1438   -2.8111   -0.1650 H         1 <0>         0.1464
     29 H9         -3.6991   -1.0789   -0.8789 H         1 <0>         0.1222
     30 H10         2.5394    2.0330   -0.8056 H         1 <0>         0.0626
     31 H11        -4.2725   -0.7966    1.4257 H         1 <0>         0.0455
     32 H12         2.3786   -2.7267    0.5744 H         1 <0>         0.0704
     33 H13        -6.0458    0.8825    1.1000 H         1 <0>         0.0245
     34 H14        -5.2655    1.4642   -0.3803 H         1 <0>         0.0245
     35 H15        -5.9295   -0.1780   -0.3097 H         1 <0>         0.0245
     36 H16        -2.5407    0.7033    2.2215 H         1 <0>         0.0245
     37 H17        -4.0255    1.6216    2.2768 H         1 <0>         0.0245
     38 H18        -2.8970    1.9065    0.9541 H         1 <0>         0.0245
     39 H19         5.0817    1.3405    1.4213 H         1 <0>         0.0609
     40 H20         5.7244    0.8545   -0.2110 H         1 <0>         0.0609
     41 H21         5.4474    3.0636    0.0354 H         1 <0>         0.2099
@<TRIPOS>BOND
     1    1   20 1
     2    1   41 1
     3    2    6 1
     4    3    6 2
     5    4    7 1
     6    4   12 1
     7    4   28 1
     8    5   10 1
     9    5   14 1
    10    5   29 1
    11    6   17 1
    12    7    8 1
    13    7   10 1
    14    7   21 1
    15    8    9 1
    16    8   22 1
    17    8   23 1
    18    9   11 1
    19    9   24 1
    20    9   25 1
    21   10   26 1
    22   10   27 1
    23   11   12 ar
    24   11   13 ar
    25   12   15 ar
    26   13   16 ar
    27   13   30 1
    28   14   18 1
    29   14   19 1
    30   14   31 1
    31   15   17 ar
    32   15   32 1
    33   16   17 ar
    34   16   20 1
    35   18   33 1
    36   18   34 1
    37   18   35 1
    38   19   36 1
    39   19   37 1
    40   19   38 1
    41   20   39 1
    42   20   40 1
