@<TRIPOS>MOLECULE
DB01275
   20    21     0     0     0
SMALL
USER_CHARGES

@<TRIPOS>ATOM
      1 N1          2.2909    0.5093    0.0031 N.pl3     1 <0>        -0.2656
      2 N2          1.5587   -1.7329    0.0039 N.ar      1 <0>        -0.1325
      3 N3          0.5739   -2.6697    0.0065 N.ar      1 <0>        -0.1553
      4 N4          3.5726    0.1381    0.3246 N.3       1 <0>        -0.2553
      5 C1         -0.0880    0.0301    0.0085 C.ar      1 <0>         0.0263
      6 C2         -1.1043   -0.9369    0.0106 C.ar      1 <0>         0.0053
      7 C3          1.2264   -0.4237    0.0052 C.ar      1 <0>         0.1623
      8 C4         -0.4262    1.3937    0.0100 C.ar      1 <0>        -0.0506
      9 C5         -2.4493   -0.5311    0.0134 C.ar      1 <0>        -0.0524
     10 C6         -1.7651    1.7864    0.0129 C.ar      1 <0>        -0.0611
     11 C7         -0.7168   -2.2723    0.0094 C.ar      1 <0>         0.0578
     12 C8         -2.7747    0.8257    0.0145 C.ar      1 <0>        -0.0611
     13 H1          0.3266    2.1771    0.0167 H         1 <0>         0.0625
     14 H2         -3.2498   -1.2674    0.0150 H         1 <0>         0.0624
     15 H3         -1.4416   -3.0799    0.0109 H         1 <0>         0.0854
     16 H4         -2.0211    2.8420    0.0156 H         1 <0>         0.0618
     17 H5         -3.8164    1.1335    0.0173 H         1 <0>         0.0618
     18 H6          2.1804    1.3364   -0.5723 H         1 <0>         0.1675
     19 H7          4.0976    0.9718    0.5850 H         1 <0>         0.1404
     20 H8          4.0261   -0.2301   -0.5108 H         1 <0>         0.1404
@<TRIPOS>BOND
     1    1    4 1
     2    1    7 1
     3    1   18 1
     4    2    3 ar
     5    2    7 ar
     6    3   11 ar
     7    4   19 1
     8    4   20 1
     9    5    6 ar
    10    5    7 ar
    11    5    8 ar
    12    6    9 ar
    13    6   11 ar
    14    8   10 ar
    15    8   13 1
    16    9   12 ar
    17    9   14 1
    18   10   12 ar
    19   10   16 1
    20   11   15 1
    21   12   17 1
