@<TRIPOS>MOLECULE
DB01435
   26    27     0     0     0
SMALL
USER_CHARGES

@<TRIPOS>ATOM
      1 O1         -0.2323    2.9872    0.0311 O.2       1 <0>        -0.2658
      2 N1         -0.1799    0.6097   -0.0961 N.am      1 <0>        -0.2172
      3 N2         -1.2133   -0.3391   -0.0231 N.pl3     1 <0>        -0.2841
      4 C1         -2.3842    0.3573    0.2610 C.2       1 <0>         0.0381
      5 C2          1.1930    0.2807    0.0236 C.ar      1 <0>         0.0673
      6 C3         -0.7480    1.8813    0.0324 C.2       1 <0>         0.2720
      7 C4         -2.1959    1.6826    0.2956 C.2       1 <0>         0.0252
      8 C5         -1.2122   -1.4462   -0.9736 C.3       1 <0>         0.0291
      9 C6         -3.6912   -0.3336    0.4401 C.3       1 <0>        -0.0226
     10 C7          2.1743    1.2148   -0.3236 C.ar      1 <0>        -0.0362
     11 C8          1.5777   -0.9803    0.4904 C.ar      1 <0>        -0.0362
     12 C9          3.5259    0.8914   -0.2055 C.ar      1 <0>        -0.0598
     13 C10         2.9294   -1.3037    0.6086 C.ar      1 <0>        -0.0598
     14 C11         3.9035   -0.3677    0.2607 C.ar      1 <0>        -0.0616
     15 H1         -2.9122    2.4662    0.4703 H         1 <0>         0.0690
     16 H2         -0.2126   -1.8117   -1.2201 H         1 <0>         0.0472
     17 H3         -1.6814   -1.1398   -1.9158 H         1 <0>         0.0472
     18 H4         -1.7783   -2.2909   -0.5668 H         1 <0>         0.0472
     19 H5         -3.6225   -1.0773    1.2406 H         1 <0>         0.0292
     20 H6         -3.9941   -0.8411   -0.4812 H         1 <0>         0.0292
     21 H7         -4.4848    0.3718    0.7082 H         1 <0>         0.0292
     22 H8          1.9218    2.1945   -0.7164 H         1 <0>         0.0639
     23 H9          0.8523   -1.7234    0.8087 H         1 <0>         0.0639
     24 H10         4.2848    1.6175   -0.4820 H         1 <0>         0.0618
     25 H11         3.2241   -2.2810    0.9796 H         1 <0>         0.0618
     26 H12         4.9560   -0.6194    0.3534 H         1 <0>         0.0618
@<TRIPOS>BOND
     1    1    6 2
     2    2    3 2
     3    2    5 1
     4    2    6 am
     5    3    4 1
     6    3    8 1
     7    4    7 2
     8    4    9 1
     9    5   10 ar
    10    5   11 ar
    11    6    7 1
    12    7   15 1
    13    8   16 1
    14    8   17 1
    15    8   18 1
    16    9   19 1
    17    9   20 1
    18    9   21 1
    19   10   12 ar
    20   10   22 1
    21   11   13 ar
    22   11   23 1
    23   12   14 ar
    24   12   24 1
    25   13   14 ar
    26   13   25 1
    27   14   26 1
