@<TRIPOS>MOLECULE
DB01264
   75    78     0     0     0
SMALL
USER_CHARGES

@<TRIPOS>ATOM
      1 S1          3.9036    0.8369   -1.4648 S.o2      1 <0>         0.0609
      2 O1         -4.2980   -3.7632    0.7054 O.3       1 <0>        -0.3473
      3 O2         -3.7649   -2.8750    2.8514 O.3       1 <0>        -0.3509
      4 O3         -3.2899   -0.9932    0.1974 O.3       1 <0>        -0.4443
      5 O4          0.1513   -1.1158   -2.5741 O.3       1 <0>        -0.3886
      6 O5         -3.4389   -0.1292   -1.9253 O.2       1 <0>        -0.2265
      7 O6          3.1719    2.0002   -1.9316 O.2       1 <0>        -0.1528
      8 O7          5.0634    0.3785   -2.2070 O.2       1 <0>        -0.1528
      9 N1         -1.5380    0.1362   -0.6235 N.am      1 <0>        -0.2754
     10 N2          2.8064   -0.4761   -1.2380 N.pl3     1 <0>        -0.1738
     11 N3          5.7143    2.0010    4.1047 N.pl3     1 <0>        -0.3580
     12 C1         -5.2804   -1.7095    1.4189 C.3       1 <0>         0.0515
     13 C2         -4.7852   -3.0752    1.8643 C.3       1 <0>         0.1656
     14 C3         -4.6051   -1.5158    0.0708 C.3       1 <0>         0.1354
     15 C4         -4.8769   -0.8004    2.5516 C.3       1 <0>        -0.0184
     16 C5         -4.5290   -2.9369   -0.4464 C.3       1 <0>         0.0881
     17 C6         -3.6580   -1.4776    3.1425 C.3       1 <0>         0.0512
     18 C7         -0.7456    0.8981   -1.5681 C.3       1 <0>         0.0573
     19 C8          0.5280    0.1194   -1.9652 C.3       1 <0>         0.0882
     20 C9         -2.8135   -0.3096   -0.8856 C.2       1 <0>         0.4009
     21 C10         1.4374   -0.1622   -0.7661 C.3       1 <0>         0.0483
     22 C11        -0.4567    2.2872   -0.9666 C.3       1 <0>        -0.0066
     23 C12         3.3376   -1.7208   -0.6235 C.3       1 <0>         0.0229
     24 C13         2.6264   -2.9690   -1.1602 C.3       1 <0>        -0.0323
     25 C14        -1.6414    3.2207   -0.9861 C.ar      1 <0>        -0.0455
     26 C15         4.4397    1.1812    0.1875 C.ar      1 <0>         0.1056
     27 C16         2.7843   -3.1219   -2.6737 C.3       1 <0>        -0.0615
     28 C17         3.0775   -4.2407   -0.4406 C.3       1 <0>        -0.0615
     29 C18        -1.8548    4.0539   -2.0843 C.ar      1 <0>        -0.0585
     30 C19        -2.5238    3.2507    0.0938 C.ar      1 <0>        -0.0585
     31 C20         5.5609    0.5336    0.7061 C.ar      1 <0>        -0.0336
     32 C21         3.7413    2.1010    0.9701 C.ar      1 <0>        -0.0336
     33 C22        -2.9503    4.9172   -2.1025 C.ar      1 <0>        -0.0615
     34 C23        -3.6195    4.1139    0.0754 C.ar      1 <0>        -0.0615
     35 C24        -3.8326    4.9471   -1.0228 C.ar      1 <0>        -0.0617
     36 C25         5.9842    0.8057    2.0068 C.ar      1 <0>        -0.0392
     37 C26         4.1647    2.3733    2.2711 C.ar      1 <0>        -0.0392
     38 C27         5.2861    1.7256    2.7895 C.ar      1 <0>         0.0247
     39 H1         -6.3669   -1.7269    1.2710 H         1 <0>         0.0387
     40 H2         -5.5810   -3.6729    2.3208 H         1 <0>         0.0913
     41 H3         -5.2195   -0.8730   -0.5699 H         1 <0>         0.0762
     42 H4         -5.6753   -0.7900    3.3037 H         1 <0>         0.0293
     43 H5         -4.6900    0.2356    2.2551 H         1 <0>         0.0293
     44 H6         -3.7227   -3.1039   -1.1659 H         1 <0>         0.0598
     45 H7         -5.4800   -3.2503   -0.8905 H         1 <0>         0.0598
     46 H8         -3.5908   -1.3355    4.2251 H         1 <0>         0.0561
     47 H9         -2.7297   -1.1071    2.6964 H         1 <0>         0.0561
     48 H10        -1.3409    1.0203   -2.4824 H         1 <0>         0.0528
     49 H11         1.0588    0.6930   -2.7321 H         1 <0>         0.0625
     50 H12         1.0288   -0.9745   -0.1565 H         1 <0>         0.0470
     51 H13         1.4979    0.6982   -0.0965 H         1 <0>         0.0470
     52 H14        -1.1397   -0.0744    0.2867 H         1 <0>         0.1524
     53 H15        -0.0964    2.2051    0.0671 H         1 <0>         0.0332
     54 H16         0.3590    2.7641   -1.5256 H         1 <0>         0.0332
     55 H17         3.2353   -1.6619    0.4669 H         1 <0>         0.0446
     56 H18         4.4066   -1.8162   -0.8446 H         1 <0>         0.0446
     57 H19         1.5514   -2.8836   -0.9653 H         1 <0>         0.0308
     58 H20        -0.3731   -1.6176   -1.9270 H         1 <0>         0.2099
     59 H21         2.4292   -2.2421   -3.2167 H         1 <0>         0.0233
     60 H22         2.2169   -3.9858   -3.0363 H         1 <0>         0.0233
     61 H23         3.8354   -3.2755   -2.9417 H         1 <0>         0.0233
     62 H24         2.5258   -5.1136   -0.8052 H         1 <0>         0.0233
     63 H25         4.1458   -4.4242   -0.5974 H         1 <0>         0.0233
     64 H26         2.9019   -4.1592    0.6372 H         1 <0>         0.0233
     65 H27        -1.1759    4.0380   -2.9329 H         1 <0>         0.0620
     66 H28        -2.3693    2.6078    0.9563 H         1 <0>         0.0620
     67 H29         6.1189   -0.1874    0.1156 H         1 <0>         0.0638
     68 H30         2.8658    2.6178    0.5875 H         1 <0>         0.0638
     69 H31        -3.1167    5.5654   -2.9579 H         1 <0>         0.0618
     70 H32        -4.3067    4.1370    0.9161 H         1 <0>         0.0618
     71 H33         6.8592    0.2943    2.3996 H         1 <0>         0.0636
     72 H34         3.6123    3.0921    2.8709 H         1 <0>         0.0636
     73 H35        -4.6859    5.6189   -1.0372 H         1 <0>         0.0618
     74 H36         5.2083    2.6674    4.6728 H         1 <0>         0.1423
     75 H37         6.5269    1.5313    4.4813 H         1 <0>         0.1423
@<TRIPOS>BOND
     1    1    7 2
     2    1    8 2
     3    1   10 1
     4    1   26 1
     5    2   13 1
     6    2   16 1
     7    3   13 1
     8    3   17 1
     9    4   14 1
    10    4   20 1
    11    5   19 1
    12    5   58 1
    13    6   20 2
    14    9   18 1
    15    9   20 am
    16    9   52 1
    17   10   21 1
    18   10   23 1
    19   11   38 1
    20   11   74 1
    21   11   75 1
    22   12   13 1
    23   12   14 1
    24   12   15 1
    25   12   39 1
    26   13   40 1
    27   14   16 1
    28   14   41 1
    29   15   17 1
    30   15   42 1
    31   15   43 1
    32   16   44 1
    33   16   45 1
    34   17   46 1
    35   17   47 1
    36   18   19 1
    37   18   22 1
    38   18   48 1
    39   19   21 1
    40   19   49 1
    41   21   50 1
    42   21   51 1
    43   22   25 1
    44   22   53 1
    45   22   54 1
    46   23   24 1
    47   23   55 1
    48   23   56 1
    49   24   27 1
    50   24   28 1
    51   24   57 1
    52   25   29 ar
    53   25   30 ar
    54   26   31 ar
    55   26   32 ar
    56   27   59 1
    57   27   60 1
    58   27   61 1
    59   28   62 1
    60   28   63 1
    61   28   64 1
    62   29   33 ar
    63   29   65 1
    64   30   34 ar
    65   30   66 1
    66   31   36 ar
    67   31   67 1
    68   32   37 ar
    69   32   68 1
    70   33   35 ar
    71   33   69 1
    72   34   35 ar
    73   34   70 1
    74   35   73 1
    75   36   38 ar
    76   36   71 1
    77   37   38 ar
    78   37   72 1
