@<TRIPOS>MOLECULE
DB01392
   52    56     0     0     0
SMALL
USER_CHARGES

@<TRIPOS>ATOM
      1 O1         -4.5537    0.0115   -1.1848 O.3       1 <0>        -0.3910
      2 O2         -3.8847    2.7426    0.5154 O.3       1 <0>        -0.4677
      3 O3         -2.1066    2.4514   -0.9303 O.2       1 <0>        -0.2504
      4 N1          0.6389   -1.8861    0.0532 N.3       1 <0>        -0.2934
      5 N2          2.5304    1.3098   -0.4125 N.pl3     1 <0>        -0.3564
      6 C1         -1.7456   -0.2043   -0.1838 C.3       1 <0>        -0.0200
      7 C2         -1.7931   -1.6520    0.3510 C.3       1 <0>        -0.0244
      8 C3         -0.3462    0.3839    0.0757 C.3       1 <0>        -0.0279
      9 C4          0.7415   -0.5190   -0.5291 C.3       1 <0>         0.0512
     10 C5         -2.8729    0.6319    0.4524 C.3       1 <0>         0.0854
     11 C6         -0.6602   -2.4960   -0.2544 C.3       1 <0>         0.0026
     12 C7         -3.1632   -2.2910    0.0952 C.3       1 <0>        -0.0464
     13 C8         -4.2529   -0.0036    0.2123 C.3       1 <0>         0.0684
     14 C9         -4.2881   -1.4515    0.7056 C.3       1 <0>        -0.0258
     15 C10         2.1239    0.0109   -0.2974 C.cat     1 <0>         0.0376
     16 C11         1.7587   -2.7518   -0.3741 C.3       1 <0>         0.0036
     17 C12         3.2261   -0.7620    0.0029 C.2       1 <0>        -0.0164
     18 C13         3.1092   -2.2360    0.1774 C.3       1 <0>        -0.0125
     19 C14        -2.8858    2.0343   -0.0841 C.2       1 <0>         0.3127
     20 C15         4.3471    0.1048    0.1056 C.ar      1 <0>         0.0032
     21 C16         3.8834    1.3982   -0.1590 C.ar      1 <0>         0.0470
     22 C17         5.7140   -0.0789    0.3947 C.ar      1 <0>        -0.0523
     23 C18         4.7248    2.5166   -0.1486 C.ar      1 <0>        -0.0378
     24 C19         6.5652    1.0318    0.4093 C.ar      1 <0>        -0.0611
     25 C20         6.0760    2.3086    0.1416 C.ar      1 <0>        -0.0598
     26 C21        -4.0108    4.1047    0.0947 C.3       1 <0>         0.0817
     27 H1         -1.8940   -0.2294   -1.2735 H         1 <0>         0.0313
     28 H2         -1.6424   -1.6230    1.4411 H         1 <0>         0.0316
     29 H3         -0.1854    0.4947    1.1573 H         1 <0>         0.0287
     30 H4         -0.2361    1.3827   -0.3500 H         1 <0>         0.0287
     31 H5          0.5929   -0.5754   -1.6175 H         1 <0>         0.0527
     32 H6         -2.6859    0.7008    1.5329 H         1 <0>         0.0442
     33 H7         -0.7068   -3.5011    0.1833 H         1 <0>         0.0429
     34 H8         -0.7958   -2.6059   -1.3382 H         1 <0>         0.0429
     35 H9         -3.1928   -3.2981    0.5283 H         1 <0>         0.0269
     36 H10        -3.3293   -2.4057   -0.9832 H         1 <0>         0.0269
     37 H11        -5.0407    0.5640    0.7205 H         1 <0>         0.0601
     38 H12        -5.2478   -1.9138    0.4462 H         1 <0>         0.0290
     39 H13        -4.2012   -1.4676    1.7989 H         1 <0>         0.0290
     40 H14         1.7976   -2.8068   -1.4705 H         1 <0>         0.0430
     41 H15         1.6158   -3.7743   -0.0036 H         1 <0>         0.0430
     42 H16         3.9322   -2.7499   -0.3315 H         1 <0>         0.0326
     43 H17         3.1801   -2.4702    1.2469 H         1 <0>         0.0326
     44 H18         1.9371    2.0934   -0.6477 H         1 <0>         0.1656
     45 H19        -5.4352   -0.3827   -1.2992 H         1 <0>         0.2098
     46 H20         6.1101   -1.0684    0.6046 H         1 <0>         0.0624
     47 H21         4.3459    3.5113   -0.3578 H         1 <0>         0.0638
     48 H22         7.6200    0.8951    0.6319 H         1 <0>         0.0618
     49 H23         6.7552    3.1572    0.1577 H         1 <0>         0.0618
     50 H24        -4.8390    4.5559    0.6474 H         1 <0>         0.0661
     51 H25        -4.2358    4.1508   -0.9750 H         1 <0>         0.0661
     52 H26        -3.0942    4.6576    0.3216 H         1 <0>         0.0661
@<TRIPOS>BOND
     1    1   13 1
     2    1   45 1
     3    2   19 1
     4    2   26 1
     5    3   19 2
     6    4    9 1
     7    4   11 1
     8    4   16 1
     9    5   15 1
    10    5   21 2
    11    5   44 1
    12    6    7 1
    13    6    8 1
    14    6   10 1
    15    6   27 1
    16    7   11 1
    17    7   12 1
    18    7   28 1
    19    8    9 1
    20    8   29 1
    21    8   30 1
    22    9   15 1
    23    9   31 1
    24   10   13 1
    25   10   19 1
    26   10   32 1
    27   11   33 1
    28   11   34 1
    29   12   14 1
    30   12   35 1
    31   12   36 1
    32   13   14 1
    33   13   37 1
    34   14   38 1
    35   14   39 1
    36   15   17 1
    37   16   18 1
    38   16   40 1
    39   16   41 1
    40   17   18 1
    41   17   20 2
    42   18   42 1
    43   18   43 1
    44   20   21 ar
    45   20   22 ar
    46   21   23 ar
    47   22   24 ar
    48   22   46 1
    49   23   25 ar
    50   23   47 1
    51   24   25 ar
    52   24   48 1
    53   25   49 1
    54   26   50 1
    55   26   51 1
    56   26   52 1
