@<TRIPOS>MOLECULE
DB01452
   50    54     0     0     0
SMALL
USER_CHARGES

@<TRIPOS>ATOM
      1 O1         -1.2131   -0.1638   -1.4632 O.3       1 <0>        -0.4799
      2 O2         -2.4723    1.8167   -0.3180 O.3       1 <0>        -0.4536
      3 O3         -2.4404   -2.6757   -0.6787 O.3       1 <0>        -0.4223
      4 O4         -2.7999    3.7877    0.8414 O.2       1 <0>        -0.2511
      5 O5         -3.4542   -1.4723    1.0541 O.2       1 <0>        -0.2507
      6 N1          3.8783    0.4297   -0.3482 N.3       1 <0>        -0.3015
      7 C1          1.0157    0.5682   -0.8087 C.3       1 <0>         0.0491
      8 C2          1.7249    1.4194    0.2555 C.3       1 <0>         0.0064
      9 C3          2.9293    0.5731    0.7822 C.3       1 <0>         0.0213
     10 C4         -0.3781    1.0342   -1.2909 C.3       1 <0>         0.1509
     11 C5          1.9880    0.2906   -1.9721 C.3       1 <0>        -0.0263
     12 C6          0.5894   -0.7158   -0.1772 C.ar      1 <0>         0.0116
     13 C7          2.4792   -0.7763    1.4408 C.3       1 <0>        -0.0110
     14 C8          3.3288   -0.2946   -1.4987 C.3       1 <0>        -0.0001
     15 C9          1.2616   -1.4036    0.8170 C.ar      1 <0>        -0.0383
     16 C10        -1.0690    2.0629   -0.3580 C.3       1 <0>         0.1587
     17 C11         0.7678    1.8835    1.3236 C.2       1 <0>        -0.0788
     18 C12        -0.6503   -1.0991   -0.6376 C.ar      1 <0>         0.1673
     19 C13        -0.5139    2.1571    1.0384 C.2       1 <0>        -0.0439
     20 C14         5.1766   -0.1059    0.0479 C.3       1 <0>        -0.0124
     21 C15         0.6915   -2.5972    1.2626 C.ar      1 <0>        -0.0545
     22 C16        -1.2288   -2.2772   -0.2193 C.ar      1 <0>         0.1733
     23 C17        -0.5366   -3.0392    0.7307 C.ar      1 <0>        -0.0153
     24 C18        -3.2218    2.7662    0.3164 C.2       1 <0>         0.3046
     25 C19        -4.6685    2.3770    0.2802 C.3       1 <0>         0.0333
     26 C20        -3.5306   -2.1916    0.0669 C.2       1 <0>         0.3093
     27 C21        -4.8199   -2.6859   -0.5187 C.3       1 <0>         0.0336
     28 H1          2.1249    2.3348   -0.2066 H         1 <0>         0.0368
     29 H2          3.4392    1.1628    1.5565 H         1 <0>         0.0472
     30 H3         -0.3089    1.4872   -2.2885 H         1 <0>         0.0783
     31 H4          2.1838    1.2340   -2.4996 H         1 <0>         0.0287
     32 H5          1.5445   -0.3921   -2.7085 H         1 <0>         0.0287
     33 H6          2.2276   -0.5600    2.4881 H         1 <0>         0.0329
     34 H7          3.2958   -1.5044    1.4660 H         1 <0>         0.0329
     35 H8          3.2094   -1.3610   -1.2705 H         1 <0>         0.0427
     36 H9          4.0324   -0.2380   -2.3388 H         1 <0>         0.0427
     37 H10        -0.9171    3.0520   -0.8149 H         1 <0>         0.0817
     38 H11         1.1343    2.0203    2.3363 H         1 <0>         0.0574
     39 H12        -1.1300    2.4899    1.8669 H         1 <0>         0.0607
     40 H13         5.1353   -1.1639    0.3252 H         1 <0>         0.0391
     41 H14         5.5913    0.4580    0.8906 H         1 <0>         0.0391
     42 H15         5.8935   -0.0046   -0.7749 H         1 <0>         0.0391
     43 H16         1.1755   -3.1804    2.0414 H         1 <0>         0.0622
     44 H17        -0.9652   -3.9696    1.0962 H         1 <0>         0.0656
     45 H18        -4.8077    1.4213    0.7919 H         1 <0>         0.0342
     46 H19        -5.0088    2.3119   -0.7563 H         1 <0>         0.0342
     47 H20        -5.2621    3.1377    0.7954 H         1 <0>         0.0342
     48 H21        -4.9163   -2.3326   -1.5482 H         1 <0>         0.0342
     49 H22        -5.6575   -2.2937    0.0650 H         1 <0>         0.0342
     50 H23        -4.8474   -3.7776   -0.4813 H         1 <0>         0.0342
@<TRIPOS>BOND
     1    1   10 1
     2    1   18 1
     3    2   16 1
     4    2   24 1
     5    3   22 1
     6    3   26 1
     7    4   24 2
     8    5   26 2
     9    6    9 1
    10    6   14 1
    11    6   20 1
    12    7    8 1
    13    7   10 1
    14    7   11 1
    15    7   12 1
    16    8    9 1
    17    8   17 1
    18    8   28 1
    19    9   13 1
    20    9   29 1
    21   10   16 1
    22   10   30 1
    23   11   14 1
    24   11   31 1
    25   11   32 1
    26   12   15 ar
    27   12   18 ar
    28   13   15 1
    29   13   33 1
    30   13   34 1
    31   14   35 1
    32   14   36 1
    33   15   21 ar
    34   16   19 1
    35   16   37 1
    36   17   19 2
    37   17   38 1
    38   18   22 ar
    39   19   39 1
    40   20   40 1
    41   20   41 1
    42   20   42 1
    43   21   23 ar
    44   21   43 1
    45   22   23 ar
    46   23   44 1
    47   24   25 1
    48   25   45 1
    49   25   46 1
    50   25   47 1
    51   26   27 1
    52   27   48 1
    53   27   49 1
    54   27   50 1
