@<TRIPOS>MOLECULE
DB01024
   43    44     0     0     0
SMALL
USER_CHARGES

@<TRIPOS>ATOM
      1 O1         -3.2976   -3.3607   -0.4913 O.3       1 <0>        -0.4563
      2 O2         -1.7836    2.2362    0.6175 O.3       1 <0>        -0.4944
      3 O3          0.2522   -1.3460   -1.8344 O.3       1 <0>        -0.5055
      4 O4         -1.3968   -3.7688   -1.7401 O.2       1 <0>        -0.2448
      5 O5          3.6451   -2.7508    1.0194 O.3       1 <0>        -0.4806
      6 O6          2.3121   -1.2560    2.0901 O.2       1 <0>        -0.2510
      7 C1         -2.8878   -1.1814    0.0455 C.ar      1 <0>         0.0136
      8 C2         -0.7625    0.4476   -0.6081 C.ar      1 <0>         0.0404
      9 C3         -1.8432   -1.6481   -0.7260 C.ar      1 <0>         0.1074
     10 C4         -2.8896    0.1212    0.5092 C.ar      1 <0>        -0.0011
     11 C5         -1.8095    0.9442    0.1753 C.ar      1 <0>         0.1303
     12 C6         -0.7612   -0.8606   -1.0735 C.ar      1 <0>         0.1381
     13 C7          0.3924    1.3556   -0.9569 C.3       1 <0>        -0.0023
     14 C8         -3.8806   -2.2530    0.2407 C.3       1 <0>         0.1191
     15 C9         -2.0991   -3.0373   -1.0712 C.2       1 <0>         0.3435
     16 C10         1.4972    1.2903    0.0615 C.2       1 <0>        -0.0805
     17 C11        -4.0172    0.6297    1.3411 C.3       1 <0>        -0.0358
     18 C12         2.7921    0.9767   -0.1417 C.2       1 <0>        -0.0757
     19 C13         3.8421    0.9049    0.9433 C.3       1 <0>        -0.0219
     20 C14         4.4099   -0.5058    1.1065 C.3       1 <0>         0.0484
     21 C15         3.2791    0.6367   -1.5268 C.3       1 <0>        -0.0438
     22 C16        -2.3798    3.2179   -0.2252 C.3       1 <0>         0.0788
     23 C17         3.3369   -1.5068    1.4711 C.2       1 <0>         0.3050
     24 H1          0.7287    1.1177   -1.9702 H         1 <0>         0.0358
     25 H2          0.0665    2.3984   -1.0320 H         1 <0>         0.0358
     26 H3         -3.9843   -2.5482    1.2882 H         1 <0>         0.0749
     27 H4         -4.8513   -2.0148   -0.2024 H         1 <0>         0.0749
     28 H5          1.1989    1.5349    1.0807 H         1 <0>         0.0575
     29 H6         -4.7583    1.1264    0.7068 H         1 <0>         0.0279
     30 H7         -4.5165   -0.1776    1.8865 H         1 <0>         0.0279
     31 H8         -3.6676    1.3387    2.0990 H         1 <0>         0.0279
     32 H9          4.6549    1.6018    0.7061 H         1 <0>         0.0315
     33 H10         3.4186    1.2396    1.8988 H         1 <0>         0.0315
     34 H11         4.9020   -0.8268    0.1814 H         1 <0>         0.0381
     35 H12         5.1598   -0.5158    1.9048 H         1 <0>         0.0381
     36 H13         4.3415    0.8862   -1.6302 H         1 <0>         0.0274
     37 H14         3.1634   -0.4340   -1.7223 H         1 <0>         0.0274
     38 H15         2.7717    1.2026   -2.3121 H         1 <0>         0.0274
     39 H16         0.0743   -2.2749   -2.0575 H         1 <0>         0.2922
     40 H17        -2.2092    3.0096   -1.2867 H         1 <0>         0.0660
     41 H18        -1.9399    4.1896    0.0158 H         1 <0>         0.0660
     42 H19        -3.4553    3.2659   -0.0311 H         1 <0>         0.0660
     43 H20         2.9515   -3.4052    1.2500 H         1 <0>         0.2951
@<TRIPOS>BOND
     1    1   14 1
     2    1   15 1
     3    2   11 1
     4    2   22 1
     5    3   12 1
     6    3   39 1
     7    4   15 2
     8    5   23 1
     9    5   43 1
    10    6   23 2
    11    7    9 ar
    12    7   10 ar
    13    7   14 1
    14    8   11 ar
    15    8   12 ar
    16    8   13 1
    17    9   12 ar
    18    9   15 1
    19   10   11 ar
    20   10   17 1
    21   13   16 1
    22   13   24 1
    23   13   25 1
    24   14   26 1
    25   14   27 1
    26   16   18 2
    27   16   28 1
    28   17   29 1
    29   17   30 1
    30   17   31 1
    31   18   19 1
    32   18   21 1
    33   19   20 1
    34   19   32 1
    35   19   33 1
    36   20   23 1
    37   20   34 1
    38   20   35 1
    39   21   36 1
    40   21   37 1
    41   21   38 1
    42   22   40 1
    43   22   41 1
    44   22   42 1
