@<TRIPOS>MOLECULE
DB01065
   33    34     0     0     0
SMALL
USER_CHARGES

@<TRIPOS>ATOM
      1 O1         -0.0465    3.3484    0.3472 O.3       1 <0>        -0.4951
      2 O2          3.3176   -1.1320    0.7275 O.2       1 <0>        -0.2761
      3 N1         -3.2104   -1.0701   -0.3785 N.pl3     1 <0>        -0.3604
      4 N2          1.5185   -1.6093   -0.6720 N.am      1 <0>        -0.3152
      5 C1         -1.2275   -1.4897    0.5264 C.2       1 <0>        -0.0208
      6 C2         -1.3207   -0.0898    0.2887 C.2       1 <0>         0.0063
      7 C3         -0.0796   -2.2068    1.1166 C.3       1 <0>        -0.0101
      8 C4         -2.5744    0.1470   -0.2793 C.2       1 <0>         0.0470
      9 C5         -2.4044   -2.0650    0.1059 C.2       1 <0>         0.0060
     10 C6          0.9548   -2.6927    0.0879 C.3       1 <0>         0.0156
     11 C7         -0.4562    1.0022    0.5029 C.2       1 <0>        -0.0105
     12 C8         -3.0085    1.4259   -0.6453 C.2       1 <0>        -0.0343
     13 C9         -0.8771    2.2872    0.1418 C.2       1 <0>         0.1208
     14 C10        -2.1340    2.4935   -0.4234 C.2       1 <0>        -0.0180
     15 C11         2.6580   -0.9172   -0.2861 C.2       1 <0>         0.2099
     16 C12         3.0451    0.1505   -1.2740 C.3       1 <0>         0.0121
     17 C13         1.2256    3.0716    0.9287 C.3       1 <0>         0.0788
     18 H1         -0.4423   -3.0774    1.6780 H         1 <0>         0.0329
     19 H2          0.4186   -1.5628    1.8526 H         1 <0>         0.0329
     20 H3         -2.7418   -3.0922    0.1065 H         1 <0>         0.0810
     21 H4          1.7598   -3.2290    0.6021 H         1 <0>         0.0465
     22 H5          0.4899   -3.3805   -0.6270 H         1 <0>         0.0465
     23 H6         -4.1382   -1.2081   -0.7549 H         1 <0>         0.1653
     24 H7          0.5051    0.7889    0.9525 H         1 <0>         0.0661
     25 H8         -3.9868    1.5876   -1.0854 H         1 <0>         0.0639
     26 H9         -2.4465    3.4982   -0.6986 H         1 <0>         0.0655
     27 H10         1.0517   -1.3474   -1.5357 H         1 <0>         0.1487
     28 H11         3.6909    0.8849   -0.7850 H         1 <0>         0.0322
     29 H12         3.5848   -0.3080   -2.1071 H         1 <0>         0.0322
     30 H13         2.1594    0.6659   -1.6560 H         1 <0>         0.0322
     31 H14         1.7521    4.0272    1.0222 H         1 <0>         0.0660
     32 H15         1.8357    2.4358    0.2801 H         1 <0>         0.0660
     33 H16         1.1274    2.6630    1.9403 H         1 <0>         0.0660
@<TRIPOS>BOND
     1    1   13 1
     2    1   17 1
     3    2   15 2
     4    3    8 1
     5    3    9 2
     6    3   23 1
     7    4   10 1
     8    4   15 am
     9    4   27 1
    10    5    6 2
    11    5    7 1
    12    5    9 1
    13    6    8 1
    14    6   11 2
    15    7   10 1
    16    7   18 1
    17    7   19 1
    18    8   12 2
    19    9   20 1
    20   10   21 1
    21   10   22 1
    22   11   13 1
    23   11   24 1
    24   12   14 1
    25   12   25 1
    26   13   14 2
    27   14   26 1
    28   15   16 1
    29   16   28 1
    30   16   29 1
    31   16   30 1
    32   17   31 1
    33   17   32 1
    34   17   33 1
