@<TRIPOS>MOLECULE
DB01112
   45    47     0     0     0
SMALL
USER_CHARGES

@<TRIPOS>ATOM
      1 S1          0.6193    1.2177    1.3293 S.3       1 <0>        -0.1310
      2 O1         -0.3098   -0.4489   -2.9100 O.2       1 <0>        -0.2731
      3 O2          5.1965    0.3461    0.7360 O.3       1 <0>        -0.4460
      4 O3          2.8494   -0.7190   -3.0526 O.3       1 <0>        -0.4763
      5 O4          2.7352   -2.4855   -1.6046 O.2       1 <0>        -0.2437
      6 O5         -3.3229    0.3546   -2.1815 O.2       1 <0>        -0.2683
      7 O6         -4.9855   -1.8690    1.3015 O.3       1 <0>        -0.4611
      8 O7         -4.8020    2.0784   -0.0387 O.3       1 <0>        -0.3964
      9 O8          6.8169   -1.2321    1.1642 O.2       1 <0>        -0.2267
     10 N1          1.0324    0.3698   -1.1525 N.am      1 <0>        -0.2489
     11 N2         -1.8966    0.8867   -0.3949 N.am      1 <0>        -0.2963
     12 N3         -4.9661    0.7876    0.4826 N.2       1 <0>        -0.0763
     13 N4          7.3158    1.0124    1.1782 N.am      1 <0>        -0.2950
     14 C1          0.5998    1.5611   -0.4450 C.3       1 <0>         0.1042
     15 C2         -0.7548    1.3797   -1.1643 C.3       1 <0>         0.1286
     16 C3         -0.0301    0.2718   -1.9807 C.2       1 <0>         0.2440
     17 C4          2.1935   -0.2838   -0.8908 C.2       1 <0>         0.1252
     18 C5          2.8974   -0.0489    0.2423 C.2       1 <0>         0.0056
     19 C6          2.4118    0.8758    1.3564 C.3       1 <0>         0.0220
     20 C7          4.2336   -0.6727    0.5661 C.3       1 <0>         0.1182
     21 C8          2.6180   -1.3040   -1.8609 C.2       1 <0>         0.3515
     22 C9         -3.0583    0.4272   -0.9920 C.2       1 <0>         0.2699
     23 C10        -4.0877   -0.0385    0.0013 C.2       1 <0>         0.2059
     24 C11        -4.0571   -1.4446    0.4047 C.2       1 <0>         0.1612
     25 C12         6.4726   -0.0620    1.0371 C.2       1 <0>         0.3980
     26 C13        -3.2307   -2.4811    0.0376 C.2       1 <0>        -0.0141
     27 C14        -3.6804   -3.6153    0.7550 C.2       1 <0>        -0.0232
     28 C15        -4.7493   -3.1911    1.5092 C.2       1 <0>         0.0926
     29 C16        -5.7948    2.9151    0.5342 C.3       1 <0>         0.1072
     30 H1          1.1475    2.4608   -0.7496 H         1 <0>         0.0644
     31 H2         -1.0338    2.2453   -1.7770 H         1 <0>         0.0622
     32 H3          2.6210    0.4243    2.3320 H         1 <0>         0.0424
     33 H4          2.9512    1.8279    1.3050 H         1 <0>         0.0424
     34 H5         -1.8503    0.8751    0.6213 H         1 <0>         0.1499
     35 H6          4.1435   -1.2585    1.4893 H         1 <0>         0.0747
     36 H7          4.5768   -1.3469   -0.2245 H         1 <0>         0.0747
     37 H8          3.1359   -1.3660   -3.7320 H         1 <0>         0.2954
     38 H9         -2.4049   -2.4348   -0.6581 H         1 <0>         0.0656
     39 H10        -3.2756   -4.6166    0.7260 H         1 <0>         0.0649
     40 H11        -5.4132   -3.6801    2.2070 H         1 <0>         0.1029
     41 H12         8.2974    0.8879    1.4017 H         1 <0>         0.1482
     42 H13         6.9829    1.9638    1.0633 H         1 <0>         0.1482
     43 H14        -5.6723    3.9240    0.1315 H         1 <0>         0.0687
     44 H15        -5.6781    2.9543    1.6218 H         1 <0>         0.0687
     45 H16        -6.7943    2.5522    0.2750 H         1 <0>         0.0687
@<TRIPOS>BOND
     1    1   14 1
     2    1   19 1
     3    2   16 2
     4    3   20 1
     5    3   25 1
     6    4   21 1
     7    4   37 1
     8    5   21 2
     9    6   22 2
    10    7   24 1
    11    7   28 1
    12    8   12 1
    13    8   29 1
    14    9   25 2
    15   10   14 1
    16   10   16 am
    17   10   17 1
    18   11   15 1
    19   11   22 am
    20   11   34 1
    21   12   23 2
    22   13   25 am
    23   13   41 1
    24   13   42 1
    25   14   15 1
    26   14   30 1
    27   15   16 1
    28   15   31 1
    29   17   18 2
    30   17   21 1
    31   18   19 1
    32   18   20 1
    33   19   32 1
    34   19   33 1
    35   20   35 1
    36   20   36 1
    37   22   23 1
    38   23   24 1
    39   24   26 2
    40   26   27 1
    41   26   38 1
    42   27   28 2
    43   27   39 1
    44   28   40 1
    45   29   43 1
    46   29   44 1
    47   29   45 1
