@<TRIPOS>MOLECULE
DB01155
   48    51     0     0     0
SMALL
USER_CHARGES

@<TRIPOS>ATOM
      1 F1         -0.9275    3.0232   -0.1620 F         1 <0>        -0.2019
      2 O1          4.1211    3.3423   -0.3266 O.2       1 <0>        -0.2862
      3 O2         -4.9781    2.0945   -0.0598 O.3       1 <0>        -0.3971
      4 O3          6.5592    2.6982    0.4221 O.3       1 <0>        -0.4770
      5 O4          7.2134    0.6853   -0.4441 O.2       1 <0>        -0.2449
      6 N1          3.2500   -0.5885    0.2351 N.pl3     1 <0>        -0.3278
      7 N2         -1.4235    0.3711    0.2151 N.pl3     1 <0>        -0.3066
      8 N3          0.8786   -0.1054    0.2278 N.ar      1 <0>        -0.2113
      9 N4         -4.9539    0.7081    0.1415 N.2       1 <0>        -0.0923
     10 N5         -3.6215   -3.4352   -0.0746 N.3       1 <0>        -0.3293
     11 C1          2.9846   -2.0208    0.4752 C.3       1 <0>         0.0360
     12 C2          3.5374   -3.0669   -0.4371 C.3       1 <0>        -0.0302
     13 C3          2.0627   -2.7906   -0.4137 C.3       1 <0>        -0.0302
     14 C4          2.1629    0.3294    0.1376 C.ar      1 <0>         0.1469
     15 C5         -3.3105   -1.0879    0.4954 C.3       1 <0>         0.0301
     16 C6         -1.8051   -1.0416    0.1996 C.3       1 <0>         0.0232
     17 C7         -2.5623    1.2713    0.1168 C.3       1 <0>         0.0554
     18 C8          4.5512   -0.1360    0.1779 C.2       1 <0>         0.0245
     19 C9         -3.7231    0.3302    0.2255 C.2       1 <0>         0.0805
     20 C10        -0.1141    0.8078    0.1246 C.ar      1 <0>         0.1595
     21 C11         2.4490    1.6909   -0.0548 C.ar      1 <0>         0.0678
     22 C12        -4.0491   -2.0982   -0.3632 C.3       1 <0>         0.0026
     23 C13         4.9223    1.1379   -0.0009 C.2       1 <0>         0.1221
     24 C14         3.8549    2.1610   -0.1446 C.2       1 <0>         0.2050
     25 C15         0.0923    2.1608   -0.0670 C.ar      1 <0>         0.1639
     26 C16         1.4020    2.6085   -0.1578 C.ar      1 <0>        -0.0087
     27 C17         6.3516    1.4486   -0.0447 C.2       1 <0>         0.3420
     28 C18        -6.3347    2.5031   -0.1512 C.3       1 <0>         0.1072
     29 H1          2.9557   -2.2547    1.5347 H         1 <0>         0.0528
     30 H2          3.8844   -3.9921    0.0065 H         1 <0>         0.0286
     31 H3          4.0875   -2.7601   -1.3183 H         1 <0>         0.0286
     32 H4          1.6408   -2.3159   -1.2910 H         1 <0>         0.0286
     33 H5          1.4175   -3.5289    0.0467 H         1 <0>         0.0286
     34 H6         -3.4786   -1.2757    1.5638 H         1 <0>         0.0390
     35 H7         -1.2557   -1.6124    0.9574 H         1 <0>         0.0471
     36 H8         -1.5689   -1.4642   -0.7846 H         1 <0>         0.0471
     37 H9         -2.6118    1.7637   -0.8605 H         1 <0>         0.0527
     38 H10        -2.6007    1.9775    0.9527 H         1 <0>         0.0527
     39 H11         5.2842   -0.9277    0.3001 H         1 <0>         0.0819
     40 H12        -3.9056   -1.8827   -1.4287 H         1 <0>         0.0429
     41 H13        -5.1278   -2.0248   -0.1833 H         1 <0>         0.0429
     42 H14         1.5893    3.6680   -0.3064 H         1 <0>         0.0655
     43 H15        -3.7292   -3.6343    0.9190 H         1 <0>         0.1182
     44 H16        -2.6297   -3.5478   -0.2782 H         1 <0>         0.1182
     45 H17         7.5089    2.9437    0.4084 H         1 <0>         0.2954
     46 H18        -6.8656    2.2701    0.7770 H         1 <0>         0.0687
     47 H19        -6.8235    2.0126   -0.9987 H         1 <0>         0.0687
     48 H20        -6.3607    3.5845   -0.3087 H         1 <0>         0.0687
@<TRIPOS>BOND
     1    1   25 1
     2    2   24 2
     3    3    9 1
     4    3   28 1
     5    4   27 1
     6    4   45 1
     7    5   27 2
     8    6   11 1
     9    6   14 1
    10    6   18 2
    11    7   16 1
    12    7   17 1
    13    7   20 1
    14    8   14 ar
    15    8   20 ar
    16    9   19 2
    17   10   22 1
    18   10   43 1
    19   10   44 1
    20   11   12 1
    21   11   13 1
    22   11   29 1
    23   12   13 1
    24   12   30 1
    25   12   31 1
    26   13   32 1
    27   13   33 1
    28   14   21 ar
    29   15   16 1
    30   15   19 1
    31   15   22 1
    32   15   34 1
    33   16   35 1
    34   16   36 1
    35   17   19 1
    36   17   37 1
    37   17   38 1
    38   18   23 1
    39   18   39 1
    40   20   25 ar
    41   21   24 1
    42   21   26 ar
    43   22   40 1
    44   22   41 1
    45   23   24 1
    46   23   27 1
    47   25   26 ar
    48   26   42 1
    49   28   46 1
    50   28   47 1
    51   28   48 1
