@<TRIPOS>MOLECULE
DB01090
   49    50     0     0     0
SMALL
USER_CHARGES

@<TRIPOS>ATOM
      1 N1          3.7262    0.4755   -0.0246 N.4       1 <0>         0.2412
      2 N2         -3.7229   -0.4631   -0.0195 N.4       1 <0>         0.2412
      3 C1          5.0146    0.6208    0.8109 C.3       1 <0>        -0.0302
      4 C2          3.9198   -0.7961   -0.8761 C.3       1 <0>        -0.0302
      5 C3         -3.9561    0.7863   -0.8938 C.3       1 <0>        -0.0302
      6 C4         -5.0036   -0.6295    0.8240 C.3       1 <0>        -0.0302
      7 C5          2.5183    0.3284    0.8881 C.3       1 <0>        -0.0303
      8 C6         -2.5164   -0.2644    0.8851 C.3       1 <0>        -0.0303
      9 C7          5.9967   -0.3422    0.1733 C.3       1 <0>        -0.0077
     10 C8          5.1150   -1.4935   -0.2576 C.3       1 <0>        -0.0077
     11 C9         -5.1687    1.4607   -0.2833 C.3       1 <0>        -0.0077
     12 C10        -6.0152    0.2929    0.1728 C.3       1 <0>        -0.0077
     13 C11         1.2689    0.1545    0.0373 C.3       1 <0>        -0.0123
     14 C12        -1.2376   -0.1627    0.0627 C.3       1 <0>        -0.0123
     15 C13         0.0184    0.0486    0.9130 C.3       1 <0>        -0.0434
     16 C14         3.5313    1.6880   -0.9219 C.3       1 <0>        -0.0413
     17 C15        -3.4966   -1.6860   -0.8949 C.3       1 <0>        -0.0413
     18 H1          4.7886    0.3219    1.8406 H         1 <0>         0.0815
     19 H2          5.3493    1.6626    0.7980 H         1 <0>         0.0815
     20 H3          4.1390   -0.4865   -1.9043 H         1 <0>         0.0815
     21 H4          3.0514   -1.4518   -0.8627 H         1 <0>         0.0815
     22 H5         -4.1690    0.4515   -1.9153 H         1 <0>         0.0815
     23 H6         -3.0930    1.4525   -0.8925 H         1 <0>         0.0815
     24 H7         -4.7819   -0.3037    1.8466 H         1 <0>         0.0815
     25 H8         -5.3080   -1.6806    0.8323 H         1 <0>         0.0815
     26 H9          2.6862   -0.5474    1.5259 H         1 <0>         0.0815
     27 H10         2.4644    1.2258    1.5155 H         1 <0>         0.0815
     28 H11        -2.4759   -1.1184    1.5715 H         1 <0>         0.0815
     29 H12        -2.6846    0.6499    1.4664 H         1 <0>         0.0815
     30 H13         6.4768    0.1213   -0.6967 H         1 <0>         0.0319
     31 H14         6.7807   -0.6527    0.8696 H         1 <0>         0.0319
     32 H15         4.8064   -2.0871    0.6112 H         1 <0>         0.0319
     33 H16         5.6153   -2.1604   -0.9657 H         1 <0>         0.0319
     34 H17        -5.6903    2.0998   -1.0014 H         1 <0>         0.0319
     35 H18        -4.8736    2.0789    0.5730 H         1 <0>         0.0319
     36 H19        -6.8052    0.5937    0.8666 H         1 <0>         0.0319
     37 H20        -6.4850   -0.2004   -0.6863 H         1 <0>         0.0319
     38 H21         1.2952   -0.7306   -0.6006 H         1 <0>         0.0317
     39 H22         1.1101    1.0159   -0.6183 H         1 <0>         0.0317
     40 H23        -1.2819    0.6428   -0.6748 H         1 <0>         0.0317
     41 H24        -1.0702   -1.0898   -0.4961 H         1 <0>         0.0317
     42 H25         0.1276   -0.7871    1.6150 H         1 <0>         0.0269
     43 H26        -0.0931    0.9619    1.5099 H         1 <0>         0.0269
     44 H27         2.8011    1.4614   -1.7027 H         1 <0>         0.0778
     45 H28         3.2187    2.5369   -0.3071 H         1 <0>         0.0778
     46 H29         4.4908    1.9103   -1.4009 H         1 <0>         0.0778
     47 H30        -2.7629   -1.4553   -1.6715 H         1 <0>         0.0778
     48 H31        -3.1720   -2.5177   -0.2627 H         1 <0>         0.0778
     49 H32        -4.4473   -1.9357   -1.3779 H         1 <0>         0.0778
@<TRIPOS>BOND
     1    1    3 1
     2    1    4 1
     3    1    7 1
     4    1   16 1
     5    2    5 1
     6    2    6 1
     7    2    8 1
     8    2   17 1
     9    3    9 1
    10    3   18 1
    11    3   19 1
    12    4   10 1
    13    4   20 1
    14    4   21 1
    15    5   11 1
    16    5   22 1
    17    5   23 1
    18    6   12 1
    19    6   24 1
    20    6   25 1
    21    7   13 1
    22    7   26 1
    23    7   27 1
    24    8   14 1
    25    8   28 1
    26    8   29 1
    27    9   10 1
    28    9   30 1
    29    9   31 1
    30   10   32 1
    31   10   33 1
    32   11   12 1
    33   11   34 1
    34   11   35 1
    35   12   36 1
    36   12   37 1
    37   13   15 1
    38   13   38 1
    39   13   39 1
    40   14   15 1
    41   14   40 1
    42   14   41 1
    43   15   42 1
    44   15   43 1
    45   16   44 1
    46   16   45 1
    47   16   46 1
    48   17   47 1
    49   17   48 1
    50   17   49 1
