@<TRIPOS>MOLECULE
DB01199
   86    92     0     0     0
SMALL
USER_CHARGES

@<TRIPOS>ATOM
      1 O1         -1.8359    0.9811   -1.6247 O.3       1 <0>        -0.4517
      2 O2         -5.2757    4.2231   -0.8685 O.3       1 <0>        -0.4913
      3 O3         -2.7987    3.5805   -1.8796 O.3       1 <0>        -0.5009
      4 O4          1.9651   -2.5922   -0.6277 O.3       1 <0>        -0.4487
      5 O5          2.3989   -4.0848    1.6790 O.3       1 <0>        -0.5033
      6 O6          4.3372   -3.3325   -1.7000 O.3       1 <0>        -0.4914
      7 N1         -4.3408   -2.1442   -0.0500 N.4       1 <0>         0.2450
      8 N2          5.2489    2.2682    1.3793 N.3       1 <0>        -0.2978
      9 C1         -3.2204   -1.0491   -0.1340 C.3       1 <0>         0.0143
     10 C2         -5.4247   -1.7169    0.9428 C.3       1 <0>        -0.0259
     11 C3         -3.7893    0.3466   -0.3869 C.ar      1 <0>         0.0499
     12 C4         -6.0322   -0.3649    0.5895 C.3       1 <0>         0.0135
     13 C5         -2.3511   -0.9942    1.1603 C.3       1 <0>         0.0202
     14 C6         -5.0808    0.6764    0.0607 C.ar      1 <0>        -0.0266
     15 C7         -3.7873   -3.5034    0.3870 C.3       1 <0>        -0.0409
     16 C8         -4.9467   -2.3646   -1.4492 C.3       1 <0>        -0.0409
     17 C9         -3.0214    1.3416   -1.0283 C.ar      1 <0>         0.1820
     18 C10        -1.1248   -1.8809    1.2303 C.ar      1 <0>        -0.0380
     19 C11        -5.5566    1.9894   -0.0994 C.ar      1 <0>        -0.0123
     20 C12        -3.5147    2.6388   -1.2012 C.ar      1 <0>         0.2021
     21 C13        -4.7747    2.9656   -0.7144 C.ar      1 <0>         0.1653
     22 C14        -0.1692   -1.9004    0.2069 C.ar      1 <0>        -0.0123
     23 C15        -0.8685   -2.6156    2.4005 C.ar      1 <0>        -0.0547
     24 C16         3.9586    1.7266    0.8855 C.3       1 <0>         0.0397
     25 C17         4.0884    0.3427    0.2574 C.ar      1 <0>        -0.0231
     26 C18         3.3260    2.7674   -0.0909 C.3       1 <0>        -0.0079
     27 C19         6.3111    2.1553    0.3705 C.3       1 <0>         0.0032
     28 C20         1.0248   -2.6095    0.3756 C.ar      1 <0>         0.1700
     29 C21         5.3046   -0.0847   -0.2987 C.ar      1 <0>        -0.0378
     30 C22         6.5607    0.7280   -0.1249 C.3       1 <0>        -0.0144
     31 C23        -0.6633    1.5825   -1.2246 C.ar      1 <0>         0.1286
     32 C24         0.3046   -3.3614    2.5407 C.ar      1 <0>        -0.0162
     33 C25         1.9117    2.4444   -0.5162 C.ar      1 <0>        -0.0453
     34 C26         1.2573   -3.3599    1.5271 C.ar      1 <0>         0.1591
     35 C27         2.9727   -0.5118    0.2026 C.ar      1 <0>        -0.0107
     36 C28         3.0424   -1.7448   -0.4544 C.ar      1 <0>         0.1703
     37 C29         5.3709   -1.3273   -0.9461 C.ar      1 <0>        -0.0128
     38 C30         5.6426    1.6799    2.6600 C.3       1 <0>        -0.0122
     39 C31         0.3920    1.4691   -2.1336 C.ar      1 <0>        -0.0191
     40 C32        -0.4431    2.1694    0.0232 C.ar      1 <0>        -0.0191
     41 C33         4.2416   -2.1420   -1.0435 C.ar      1 <0>         0.1624
     42 C34         1.6688    1.9054   -1.7862 C.ar      1 <0>        -0.0550
     43 C35         0.8402    2.5992    0.3734 C.ar      1 <0>        -0.0550
     44 C36        -4.9967    5.1633    0.1671 C.3       1 <0>         0.0790
     45 C37         4.0392   -3.3288   -3.0944 C.3       1 <0>         0.0790
     46 H1         -2.6176   -1.3479   -0.9988 H         1 <0>         0.0909
     47 H2         -4.9726   -1.6854    1.9388 H         1 <0>         0.0818
     48 H3         -6.1954   -2.4970    0.9560 H         1 <0>         0.0818
     49 H4         -6.5396    0.0254    1.4807 H         1 <0>         0.0365
     50 H5         -6.8099   -0.5184   -0.1700 H         1 <0>         0.0365
     51 H6         -2.9699   -1.1568    2.0487 H         1 <0>         0.0372
     52 H7         -1.9597    0.0211    1.3027 H         1 <0>         0.0372
     53 H8         -2.9368   -3.7532   -0.2530 H         1 <0>         0.0778
     54 H9         -3.4970   -3.4507    1.4379 H         1 <0>         0.0778
     55 H10        -4.5795   -4.2505    0.2739 H         1 <0>         0.0778
     56 H11        -5.3185   -1.4176   -1.8451 H         1 <0>         0.0778
     57 H12        -4.1616   -2.7590   -2.1016 H         1 <0>         0.0778
     58 H13        -5.7666   -3.0836   -1.3597 H         1 <0>         0.0778
     59 H14        -6.5601    2.2432    0.2367 H         1 <0>         0.0658
     60 H15        -0.3226   -1.3309   -0.7041 H         1 <0>         0.0658
     61 H16        -1.5826   -2.6068    3.2207 H         1 <0>         0.0621
     62 H17         3.2831    1.6411    1.7486 H         1 <0>         0.0515
     63 H18         3.9400    2.8798   -0.9933 H         1 <0>         0.0332
     64 H19         3.3123    3.7573    0.3858 H         1 <0>         0.0332
     65 H20         7.2477    2.5776    0.7567 H         1 <0>         0.0430
     66 H21         6.0596    2.7903   -0.4874 H         1 <0>         0.0430
     67 H22         7.2019    0.2043    0.5956 H         1 <0>         0.0326
     68 H23         7.1044    0.7746   -1.0762 H         1 <0>         0.0326
     69 H24         0.4726   -3.9290    3.4520 H         1 <0>         0.0655
     70 H25        -2.1144    3.1393   -2.4087 H         1 <0>         0.2924
     71 H26         2.0427   -0.1825    0.6559 H         1 <0>         0.0659
     72 H27         6.3131   -1.6632   -1.3742 H         1 <0>         0.0658
     73 H28         6.5723    2.1343    3.0204 H         1 <0>         0.0391
     74 H29         5.7885    0.5958    2.6110 H         1 <0>         0.0391
     75 H30         4.8832    1.8860    3.4225 H         1 <0>         0.0391
     76 H31         0.2339    1.0061   -3.1044 H         1 <0>         0.0654
     77 H32        -1.2362    2.2616    0.7587 H         1 <0>         0.0654
     78 H33         2.4829    1.7729   -2.4944 H         1 <0>         0.0621
     79 H34         1.0075    3.0152    1.3639 H         1 <0>         0.0621
     80 H35        -3.9175    5.3132    0.2710 H         1 <0>         0.0660
     81 H36        -5.4222    4.8239    1.1169 H         1 <0>         0.0660
     82 H37        -5.4582    6.1171   -0.1024 H         1 <0>         0.0660
     83 H38         2.9048   -4.0487    0.8497 H         1 <0>         0.2923
     84 H39         4.7381   -2.6812   -3.6333 H         1 <0>         0.0660
     85 H40         3.0104   -2.9986   -3.2698 H         1 <0>         0.0660
     86 H41         4.1474   -4.3497   -3.4707 H         1 <0>         0.0660
@<TRIPOS>BOND
     1    1   17 1
     2    1   31 1
     3    2   21 1
     4    2   44 1
     5    3   20 1
     6    3   70 1
     7    4   28 1
     8    4   36 1
     9    5   34 1
    10    5   83 1
    11    6   41 1
    12    6   45 1
    13    7    9 1
    14    7   10 1
    15    7   15 1
    16    7   16 1
    17    8   24 1
    18    8   27 1
    19    8   38 1
    20    9   11 1
    21    9   13 1
    22    9   46 1
    23   10   12 1
    24   10   47 1
    25   10   48 1
    26   11   14 ar
    27   11   17 ar
    28   12   14 1
    29   12   49 1
    30   12   50 1
    31   13   18 1
    32   13   51 1
    33   13   52 1
    34   14   19 ar
    35   15   53 1
    36   15   54 1
    37   15   55 1
    38   16   56 1
    39   16   57 1
    40   16   58 1
    41   17   20 ar
    42   18   22 ar
    43   18   23 ar
    44   19   21 ar
    45   19   59 1
    46   20   21 ar
    47   22   28 ar
    48   22   60 1
    49   23   32 ar
    50   23   61 1
    51   24   25 1
    52   24   26 1
    53   24   62 1
    54   25   29 ar
    55   25   35 ar
    56   26   33 1
    57   26   63 1
    58   26   64 1
    59   27   30 1
    60   27   65 1
    61   27   66 1
    62   28   34 ar
    63   29   30 1
    64   29   37 ar
    65   30   67 1
    66   30   68 1
    67   31   39 ar
    68   31   40 ar
    69   32   34 ar
    70   32   69 1
    71   33   42 ar
    72   33   43 ar
    73   35   36 ar
    74   35   71 1
    75   36   41 ar
    76   37   41 ar
    77   37   72 1
    78   38   73 1
    79   38   74 1
    80   38   75 1
    81   39   42 ar
    82   39   76 1
    83   40   43 ar
    84   40   77 1
    85   42   78 1
    86   43   79 1
    87   44   80 1
    88   44   81 1
    89   44   82 1
    90   45   84 1
    91   45   85 1
    92   45   86 1
