@<TRIPOS>MOLECULE
DB01327
   43    46     0     0     0
SMALL
USER_CHARGES

@<TRIPOS>ATOM
      1 S1         -0.8664   -1.1564   -2.0834 S.3       1 <0>        -0.1311
      2 S2          3.1774    0.8625   -0.4549 S.3       1 <0>        -0.0925
      3 S3          5.8611    2.2998   -0.4138 S.3       1 <0>        -0.0445
      4 O1         -2.2609   -0.8797    2.3429 O.2       1 <0>        -0.2731
      5 O2          1.3821   -1.7516    2.7320 O.3       1 <0>        -0.4763
      6 O3          0.9103    0.4672    2.4412 O.2       1 <0>        -0.2437
      7 O4         -5.0945   -0.4355    1.0532 O.2       1 <0>        -0.2738
      8 N1         -0.8121   -1.4084    0.5590 N.am      1 <0>        -0.2490
      9 N2         -3.5364   -0.6765   -0.6503 N.am      1 <0>        -0.3002
     10 N3         -6.4495    1.5844   -0.2887 N.pl3     1 <0>        -0.2232
     11 N4         -7.6667    1.0882   -0.4877 N.2       1 <0>        -0.0437
     12 N5          5.6043   -0.2298   -0.0946 N.2       1 <0>        -0.1348
     13 N6         -7.7404    2.8716    0.8481 N.2       1 <0>        -0.1169
     14 N7         -8.4622    1.8847    0.2157 N.2       1 <0>        -0.0233
     15 N8          6.9625    0.0220   -0.0095 N.2       1 <0>        -0.1457
     16 C1         -1.3611   -2.0750   -0.6077 C.3       1 <0>         0.1042
     17 C2         -2.7518   -1.7407   -0.0251 C.3       1 <0>         0.1284
     18 C3         -1.9721   -1.2777    1.2387 C.2       1 <0>         0.2440
     19 C4          0.5034   -1.1059    0.7061 C.2       1 <0>         0.1228
     20 C5          1.3581   -1.1376   -0.3439 C.2       1 <0>        -0.0211
     21 C6          0.9151   -1.4098   -1.7798 C.3       1 <0>         0.0196
     22 C7          2.8452   -0.8946   -0.2465 C.3       1 <0>         0.0244
     23 C8          0.9444   -0.6796    2.0426 C.2       1 <0>         0.3514
     24 C9         -4.6579   -0.1072   -0.0468 C.2       1 <0>         0.2353
     25 C10        -5.2817    0.9675   -0.9102 C.3       1 <0>         0.1209
     26 C11         4.9398    0.8724   -0.3017 C.2       1 <0>         0.1588
     27 C12        -6.4872    2.6613    0.5170 C.2       1 <0>         0.1386
     28 C13         7.2322    1.3012   -0.1588 C.2       1 <0>         0.0999
     29 C14         8.5822    1.8982   -0.1185 C.3       1 <0>        -0.0140
     30 H1         -1.1358   -3.1478   -0.6317 H         1 <0>         0.0644
     31 H2         -3.3653   -2.6311    0.1564 H         1 <0>         0.0622
     32 H3          1.1769   -2.4387   -2.0502 H         1 <0>         0.0423
     33 H4          1.4372   -0.7420   -2.4725 H         1 <0>         0.0423
     34 H5         -3.2662   -0.3284   -1.5673 H         1 <0>         0.1496
     35 H6          3.3741   -1.4805   -1.0072 H         1 <0>         0.0427
     36 H7          3.2265   -1.2274    0.7251 H         1 <0>         0.0427
     37 H8         -4.5515    1.7625   -1.0961 H         1 <0>         0.0606
     38 H9         -5.5987    0.5429   -1.8687 H         1 <0>         0.0606
     39 H10         1.6882   -1.5116    3.6325 H         1 <0>         0.2954
     40 H11        -5.6267    3.2363    0.8261 H         1 <0>         0.1063
     41 H12         9.3392    1.1252    0.0488 H         1 <0>         0.0298
     42 H13         8.6652    2.6275    0.6938 H         1 <0>         0.0298
     43 H14         8.8194    2.3980   -1.0632 H         1 <0>         0.0298
@<TRIPOS>BOND
     1    1   16 1
     2    1   21 1
     3    2   22 1
     4    2   26 1
     5    3   26 1
     6    3   28 1
     7    4   18 2
     8    5   23 1
     9    5   39 1
    10    6   23 2
    11    7   24 2
    12    8   16 1
    13    8   18 am
    14    8   19 1
    15    9   17 1
    16    9   24 am
    17    9   34 1
    18   10   11 1
    19   10   25 1
    20   10   27 1
    21   11   14 1
    22   12   15 1
    23   12   26 2
    24   13   14 1
    25   13   27 2
    26   15   28 2
    27   16   17 1
    28   16   30 1
    29   17   18 1
    30   17   31 1
    31   19   20 2
    32   19   23 1
    33   20   21 1
    34   20   22 1
    35   21   32 1
    36   21   33 1
    37   22   35 1
    38   22   36 1
    39   24   25 1
    40   25   37 1
    41   25   38 1
    42   27   40 1
    43   28   29 1
    44   29   41 1
    45   29   42 1
    46   29   43 1
