@<TRIPOS>MOLECULE
DB01591
   53    57     0     0     0
SMALL
USER_CHARGES

@<TRIPOS>ATOM
      1 O1         -0.9686    0.8386    0.6040 O.3       1 <0>        -0.4454
      2 O2         -0.5967    2.9736   -0.1243 O.2       1 <0>        -0.2262
      3 N1         -4.1588    0.7490   -0.9024 N.3       1 <0>        -0.2988
      4 N2          1.1755    1.4610   -0.0005 N.am      1 <0>        -0.2560
      5 C1         -3.1007   -0.0758    1.3230 C.3       1 <0>        -0.0002
      6 C2         -2.3541    1.1551    0.7776 C.3       1 <0>         0.1201
      7 C3         -3.0747   -1.1820    0.2538 C.3       1 <0>        -0.0339
      8 C4         -4.5664    0.3318    1.5300 C.3       1 <0>        -0.0339
      9 C5         -2.9793    1.5785   -0.5638 C.3       1 <0>         0.0364
     10 C6         -3.7223   -0.6576   -1.0378 C.3       1 <0>        -0.0006
     11 C7         -5.1439    0.8392    0.1981 C.3       1 <0>        -0.0006
     12 C8         -0.1706    1.8499    0.1374 C.2       1 <0>         0.4039
     13 C9          1.6910    0.1741    0.5490 C.3       1 <0>         0.0798
     14 C10         2.1289    2.4618   -0.4877 C.3       1 <0>         0.0227
     15 C11         3.2092    0.0912    0.6293 C.ar      1 <0>        -0.0193
     16 C12         3.3667    1.8614   -1.1379 C.3       1 <0>        -0.0114
     17 C13         4.0164    0.8874   -0.1994 C.ar      1 <0>        -0.0406
     18 C14         1.1126   -1.0335   -0.1869 C.ar      1 <0>        -0.0225
     19 C15         3.8212   -0.8121    1.5127 C.ar      1 <0>        -0.0562
     20 C16         5.4097    0.7511   -0.1610 C.ar      1 <0>        -0.0582
     21 C17         0.9411   -2.2346    0.4915 C.ar      1 <0>        -0.0565
     22 C18         0.7630   -0.9195   -1.5274 C.ar      1 <0>        -0.0565
     23 C19         5.2105   -0.9306    1.5577 C.ar      1 <0>        -0.0614
     24 C20         6.0037   -0.1532    0.7179 C.ar      1 <0>        -0.0615
     25 C21         0.4129   -3.3372   -0.1800 C.ar      1 <0>        -0.0614
     26 C22         0.2346   -2.0221   -2.1988 C.ar      1 <0>        -0.0614
     27 C23         0.0596   -3.2310   -1.5251 C.ar      1 <0>        -0.0617
     28 H1         -2.6457   -0.4381    2.2506 H         1 <0>         0.0338
     29 H2         -2.4321    1.9694    1.5104 H         1 <0>         0.0750
     30 H3         -2.0476   -1.4985    0.0571 H         1 <0>         0.0281
     31 H4         -3.6201   -2.0629    0.6126 H         1 <0>         0.0281
     32 H5         -5.1487   -0.5252    1.8888 H         1 <0>         0.0281
     33 H6         -4.6376    1.1165    2.2924 H         1 <0>         0.0281
     34 H7         -3.2938    2.6285   -0.5090 H         1 <0>         0.0463
     35 H8         -2.2712    1.5193   -1.3992 H         1 <0>         0.0463
     36 H9         -3.0167   -0.7485   -1.8731 H         1 <0>         0.0427
     37 H10        -4.5794   -1.2867   -1.3090 H         1 <0>         0.0427
     38 H11        -6.0421    0.2651   -0.0617 H         1 <0>         0.0427
     39 H12        -5.4813    1.8774    0.3079 H         1 <0>         0.0427
     40 H13         1.3072    0.1523    1.5795 H         1 <0>         0.0602
     41 H14         2.4113    3.0694    0.3819 H         1 <0>         0.0469
     42 H15         1.6263    3.1312   -1.1949 H         1 <0>         0.0469
     43 H16         4.0599    2.6689   -1.4001 H         1 <0>         0.0328
     44 H17         3.1003    1.3355   -2.0623 H         1 <0>         0.0328
     45 H18         3.2259   -1.4256    2.1827 H         1 <0>         0.0621
     46 H19         6.0398    1.3536   -0.8102 H         1 <0>         0.0620
     47 H20         1.1902   -2.3310    1.5437 H         1 <0>         0.0621
     48 H21         0.8982    0.0024   -2.0843 H         1 <0>         0.0621
     49 H22         5.6731   -1.6318    2.2462 H         1 <0>         0.0618
     50 H23         7.0849   -0.2498    0.7490 H         1 <0>         0.0618
     51 H24         0.2713   -4.2768    0.3460 H         1 <0>         0.0618
     52 H25        -0.0393   -1.9402   -3.2466 H         1 <0>         0.0618
     53 H26        -0.3531   -4.0890   -2.0475 H         1 <0>         0.0618
@<TRIPOS>BOND
     1    1    6 1
     2    1   12 1
     3    2   12 2
     4    3    9 1
     5    3   10 1
     6    3   11 1
     7    4   12 am
     8    4   13 1
     9    4   14 1
    10    5    6 1
    11    5    7 1
    12    5    8 1
    13    5   28 1
    14    6    9 1
    15    6   29 1
    16    7   10 1
    17    7   30 1
    18    7   31 1
    19    8   11 1
    20    8   32 1
    21    8   33 1
    22    9   34 1
    23    9   35 1
    24   10   36 1
    25   10   37 1
    26   11   38 1
    27   11   39 1
    28   13   15 1
    29   13   18 1
    30   13   40 1
    31   14   16 1
    32   14   41 1
    33   14   42 1
    34   15   17 ar
    35   15   19 ar
    36   16   17 1
    37   16   43 1
    38   16   44 1
    39   17   20 ar
    40   18   21 ar
    41   18   22 ar
    42   19   23 ar
    43   19   45 1
    44   20   24 ar
    45   20   46 1
    46   21   25 ar
    47   21   47 1
    48   22   26 ar
    49   22   48 1
    50   23   24 ar
    51   23   49 1
    52   24   50 1
    53   25   27 ar
    54   25   51 1
    55   26   27 ar
    56   26   52 1
    57   27   53 1
