@<TRIPOS>MOLECULE
DB01235
   25    25     0     0     0
SMALL
USER_CHARGES

@<TRIPOS>ATOM
      1 O1         -2.7691    2.1266    0.6738 O.3       1 <0>        -0.5033
      2 O2          1.5168    1.8606   -1.3527 O.3       1 <0>        -0.4795
      3 O3         -4.2143   -0.0056   -0.3694 O.3       1 <0>        -0.5033
      4 O4          3.3077    1.8742    0.0396 O.2       1 <0>        -0.2492
      5 N1          3.4958   -0.8492   -0.2408 N.3       1 <0>        -0.3181
      6 C1          1.2790   -0.5984    0.7781 C.3       1 <0>        -0.0019
      7 C2          2.1803   -0.2370   -0.4127 C.3       1 <0>         0.1072
      8 C3         -0.1921   -0.4364    0.4717 C.ar      1 <0>        -0.0417
      9 C4         -0.8048    0.7811    0.7170 C.ar      1 <0>        -0.0133
     10 C5         -0.8979   -1.5088   -0.0475 C.ar      1 <0>        -0.0548
     11 C6         -2.1628    0.9305    0.4349 C.ar      1 <0>         0.1585
     12 C7          2.4092    1.2607   -0.5224 C.2       1 <0>         0.3220
     13 C8         -2.2557   -1.3596   -0.3297 C.ar      1 <0>        -0.0163
     14 C9         -2.8880   -0.1400   -0.0886 C.ar      1 <0>         0.1582
     15 H1          1.5375    0.0048    1.6593 H         1 <0>         0.0334
     16 H2          1.4457   -1.6418    1.0808 H         1 <0>         0.0334
     17 H3          1.7687   -0.6009   -1.3613 H         1 <0>         0.0577
     18 H4         -0.2439    1.6165    1.1270 H         1 <0>         0.0658
     19 H5         -0.4136   -2.4615   -0.2411 H         1 <0>         0.0621
     20 H6         -2.8087   -2.2013   -0.7379 H         1 <0>         0.0655
     21 H7          3.3985   -1.8636   -0.2084 H         1 <0>         0.1190
     22 H8          3.8881   -0.5795    0.6612 H         1 <0>         0.1190
     23 H9         -3.7056    2.0507    0.4210 H         1 <0>         0.2923
     24 H10         1.6789    2.8250   -1.4282 H         1 <0>         0.2951
     25 H11        -4.5498   -0.8470   -0.7237 H         1 <0>         0.2923
@<TRIPOS>BOND
     1    1   11 1
     2    1   23 1
     3    2   12 1
     4    2   24 1
     5    3   14 1
     6    3   25 1
     7    4   12 2
     8    5    7 1
     9    5   21 1
    10    5   22 1
    11    6    7 1
    12    6    8 1
    13    6   15 1
    14    6   16 1
    15    7   12 1
    16    7   17 1
    17    8    9 ar
    18    8   10 ar
    19    9   11 ar
    20    9   18 1
    21   10   13 ar
    22   10   19 1
    23   11   14 ar
    24   13   14 ar
    25   13   20 1
