@<TRIPOS>MOLECULE
DB01338
  105   110     0     0     0
SMALL
USER_CHARGES

@<TRIPOS>ATOM
      1 O1         -4.2677   -1.7013   -1.7082 O.3       1 <0>        -0.4594
      2 O2          4.5149    3.1796   -1.0086 O.3       1 <0>        -0.4599
      3 O3         -3.3431   -2.0058   -3.8034 O.2       1 <0>        -0.2512
      4 O4          6.8127    3.1337   -1.2434 O.2       1 <0>        -0.2512
      5 N1         -5.4288    0.0616    0.1014 N.3       1 <0>        -0.2859
      6 N2          5.2014   -0.1496    0.3547 N.3       1 <0>        -0.2859
      7 N3         -8.1403    0.1669    1.2114 N.4       1 <0>         0.2408
      8 N4          7.0299   -2.3344    1.0473 N.4       1 <0>         0.2408
      9 C1         -0.5889    0.9021    0.3436 C.3       1 <0>        -0.0342
     10 C2          0.5819    0.4641   -0.5993 C.3       1 <0>        -0.0322
     11 C3         -1.9052    0.7707   -0.4300 C.3       1 <0>        -0.0276
     12 C4         -2.1785   -0.6772   -0.8879 C.3       1 <0>         0.0096
     13 C5          1.9948    0.6353    0.0837 C.3       1 <0>        -0.0245
     14 C6          2.1039    2.1249    0.5344 C.3       1 <0>        -0.0319
     15 C7          0.3347   -0.9397   -1.2125 C.3       1 <0>        -0.0488
     16 C8         -1.0574   -1.0880   -1.8550 C.3       1 <0>        -0.0437
     17 C9         -3.5583   -0.4860   -1.5553 C.3       1 <0>         0.1240
     18 C10        -3.2114    1.1711    0.2496 C.3       1 <0>        -0.0302
     19 C11        -0.3822    2.3267    0.8761 C.3       1 <0>        -0.0494
     20 C12        -4.2944    0.5632   -0.6736 C.3       1 <0>         0.0486
     21 C13         0.9928    2.5168    1.5152 C.3       1 <0>        -0.0493
     22 C14         3.1287    0.3673   -0.9532 C.3       1 <0>        -0.0280
     23 C15         3.4960    2.4900    1.0751 C.3       1 <0>        -0.0108
     24 C16         4.5570    0.8015   -0.5502 C.3       1 <0>         0.0483
     25 C17        -2.2657   -1.7181    0.2569 C.3       1 <0>        -0.0559
     26 C18         2.1295   -0.3517    1.2695 C.3       1 <0>        -0.0590
     27 C19         4.5988    2.2167    0.0466 C.3       1 <0>         0.1188
     28 C20        -5.7466    0.9764    1.2023 C.3       1 <0>         0.0397
     29 C21        -6.5949   -0.1432   -0.7636 C.3       1 <0>         0.0397
     30 C22         4.8983   -1.5277   -0.0437 C.3       1 <0>         0.0397
     31 C23         6.6494    0.0775    0.3968 C.3       1 <0>         0.0397
     32 C24        -6.8933    0.4399    2.0555 C.3       1 <0>        -0.0175
     33 C25        -7.7718   -0.7195    0.0198 C.3       1 <0>        -0.0175
     34 C26         5.5177   -2.5337    0.9233 C.3       1 <0>        -0.0175
     35 C27         7.3311   -0.8713    1.3795 C.3       1 <0>        -0.0175
     36 C28        -4.0698   -2.3690   -2.8884 C.2       1 <0>         0.3043
     37 C29        -8.8004    1.4676    0.7555 C.3       1 <0>        -0.0414
     38 C30        -9.1574   -0.5833    2.0778 C.3       1 <0>        -0.0414
     39 C31         5.7055    3.5458   -1.5620 C.2       1 <0>         0.3043
     40 C32         7.5414   -3.2082    2.1975 C.3       1 <0>        -0.0414
     41 C33         7.7564   -2.7788   -0.2214 C.3       1 <0>        -0.0414
     42 C34        -4.8789   -3.6302   -2.9094 C.3       1 <0>         0.0332
     43 C35         5.4643    4.5518   -2.6463 C.3       1 <0>         0.0332
     44 H1         -0.6229    0.2397    1.2146 H         1 <0>         0.0306
     45 H2          0.5649    1.1606   -1.4530 H         1 <0>         0.0309
     46 H3         -1.8148    1.4120   -1.3228 H         1 <0>         0.0310
     47 H4          1.9553    2.7499   -0.3601 H         1 <0>         0.0307
     48 H5          1.0755   -1.1463   -1.9920 H         1 <0>         0.0268
     49 H6          0.4579   -1.7192   -0.4553 H         1 <0>         0.0268
     50 H7         -1.1874   -2.1246   -2.1867 H         1 <0>         0.0272
     51 H8         -1.0906   -0.4640   -2.7574 H         1 <0>         0.0272
     52 H9         -3.4318   -0.0075   -2.5379 H         1 <0>         0.0755
     53 H10        -3.1749    0.7347    1.2526 H         1 <0>         0.0284
     54 H11        -3.3163    2.2569    0.3465 H         1 <0>         0.0284
     55 H12        -1.1524    2.5667    1.6183 H         1 <0>         0.0268
     56 H13        -0.4990    3.0483    0.0574 H         1 <0>         0.0268
     57 H14        -4.6328    1.3760   -1.3336 H         1 <0>         0.0499
     58 H15         1.1017    3.5719    1.7953 H         1 <0>         0.0268
     59 H16         1.0634    1.9442    2.4462 H         1 <0>         0.0268
     60 H17         3.0787   -0.6380   -1.3769 H         1 <0>         0.0287
     61 H18         2.8860    0.9906   -1.8298 H         1 <0>         0.0287
     62 H19         3.5054    3.5571    1.3315 H         1 <0>         0.0304
     63 H20         3.7000    1.9386    1.9999 H         1 <0>         0.0304
     64 H21         5.1211    0.8048   -1.4950 H         1 <0>         0.0499
     65 H22        -3.0929   -1.5153    0.9437 H         1 <0>         0.0236
     66 H23        -2.4280   -2.7240   -0.1481 H         1 <0>         0.0236
     67 H24        -1.3554   -1.7655    0.8596 H         1 <0>         0.0236
     68 H25         3.0670   -0.2282    1.8158 H         1 <0>         0.0235
     69 H26         2.0598   -1.3943    0.9516 H         1 <0>         0.0235
     70 H27         1.3389   -0.2142    2.0121 H         1 <0>         0.0235
     71 H28         5.5221    2.4244    0.5923 H         1 <0>         0.0750
     72 H29        -5.9826    1.9805    0.8284 H         1 <0>         0.0479
     73 H30        -4.9343    1.0918    1.9225 H         1 <0>         0.0479
     74 H31        -6.8910    0.7958   -1.2482 H         1 <0>         0.0479
     75 H32        -6.3894   -0.8421   -1.5775 H         1 <0>         0.0479
     76 H33         5.2386   -1.7265   -1.0679 H         1 <0>         0.0479
     77 H34         3.8413   -1.7783   -0.0112 H         1 <0>         0.0479
     78 H35         6.9049    1.0801    0.7463 H         1 <0>         0.0479
     79 H36         7.0962   -0.0231   -0.6001 H         1 <0>         0.0479
     80 H37        -6.6067   -0.5082    2.5280 H         1 <0>         0.0828
     81 H38        -7.1733    1.1524    2.8399 H         1 <0>         0.0828
     82 H39        -8.6622   -0.8135   -0.6123 H         1 <0>         0.0828
     83 H40        -7.5164   -1.7101    0.4166 H         1 <0>         0.0828
     84 H41         5.3454   -3.5638    0.5911 H         1 <0>         0.0828
     85 H42         5.0900   -2.4118    1.9265 H         1 <0>         0.0828
     86 H43         6.9697   -0.6880    2.3993 H         1 <0>         0.0828
     87 H44         8.4196   -0.7446    1.3650 H         1 <0>         0.0828
     88 H45        -9.6958    1.2151    0.1798 H         1 <0>         0.0778
     89 H46        -9.0705    2.0457    1.6444 H         1 <0>         0.0778
     90 H47        -8.1060    2.0378    0.1365 H         1 <0>         0.0778
     91 H48       -10.0447   -0.7858    1.4705 H         1 <0>         0.0778
     92 H49        -8.7052   -1.5205    2.4157 H         1 <0>         0.0778
     93 H50        -9.4121    0.0474    2.9349 H         1 <0>         0.0778
     94 H51         8.6210   -3.0573    2.2914 H         1 <0>         0.0778
     95 H52         7.0332   -2.9066    3.1184 H         1 <0>         0.0778
     96 H53         7.3167   -4.2530    1.9632 H         1 <0>         0.0778
     97 H54         8.8310   -2.6419   -0.0679 H         1 <0>         0.0778
     98 H55         7.5289   -3.8348   -0.3958 H         1 <0>         0.0778
     99 H56         7.4209   -2.1793   -1.0691 H         1 <0>         0.0778
    100 H57        -4.5642   -4.2843   -2.0924 H         1 <0>         0.0342
    101 H58        -4.7151   -4.1511   -3.8570 H         1 <0>         0.0342
    102 H59        -5.9414   -3.3894   -2.8227 H         1 <0>         0.0342
    103 H60         4.9883    5.4418   -2.2272 H         1 <0>         0.0342
    104 H61         6.4209    4.8440   -3.0890 H         1 <0>         0.0342
    105 H62         4.8392    4.1118   -3.4273 H         1 <0>         0.0342
@<TRIPOS>BOND
     1    1   17 1
     2    1   36 1
     3    2   27 1
     4    2   39 1
     5    3   36 2
     6    4   39 2
     7    5   20 1
     8    5   28 1
     9    5   29 1
    10    6   24 1
    11    6   30 1
    12    6   31 1
    13    7   32 1
    14    7   33 1
    15    7   37 1
    16    7   38 1
    17    8   34 1
    18    8   35 1
    19    8   40 1
    20    8   41 1
    21    9   10 1
    22    9   11 1
    23    9   19 1
    24    9   44 1
    25   10   13 1
    26   10   15 1
    27   10   45 1
    28   11   12 1
    29   11   18 1
    30   11   46 1
    31   12   16 1
    32   12   17 1
    33   12   25 1
    34   13   14 1
    35   13   22 1
    36   13   26 1
    37   14   21 1
    38   14   23 1
    39   14   47 1
    40   15   16 1
    41   15   48 1
    42   15   49 1
    43   16   50 1
    44   16   51 1
    45   17   20 1
    46   17   52 1
    47   18   20 1
    48   18   53 1
    49   18   54 1
    50   19   21 1
    51   19   55 1
    52   19   56 1
    53   20   57 1
    54   21   58 1
    55   21   59 1
    56   22   24 1
    57   22   60 1
    58   22   61 1
    59   23   27 1
    60   23   62 1
    61   23   63 1
    62   24   27 1
    63   24   64 1
    64   25   65 1
    65   25   66 1
    66   25   67 1
    67   26   68 1
    68   26   69 1
    69   26   70 1
    70   27   71 1
    71   28   32 1
    72   28   72 1
    73   28   73 1
    74   29   33 1
    75   29   74 1
    76   29   75 1
    77   30   34 1
    78   30   76 1
    79   30   77 1
    80   31   35 1
    81   31   78 1
    82   31   79 1
    83   32   80 1
    84   32   81 1
    85   33   82 1
    86   33   83 1
    87   34   84 1
    88   34   85 1
    89   35   86 1
    90   35   87 1
    91   36   42 1
    92   37   88 1
    93   37   89 1
    94   37   90 1
    95   38   91 1
    96   38   92 1
    97   38   93 1
    98   39   43 1
    99   40   94 1
   100   40   95 1
   101   40   96 1
   102   41   97 1
   103   41   98 1
   104   41   99 1
   105   42  100 1
   106   42  101 1
   107   42  102 1
   108   43  103 1
   109   43  104 1
   110   43  105 1
