@<TRIPOS>MOLECULE
DB01612
   19    18     0     0     0
SMALL
USER_CHARGES

@<TRIPOS>ATOM
      1 O1          3.0894   -0.4584    0.0146 O.3       1 <0>        -0.3629
      2 O2          5.3613   -0.3724    0.0482 O.2       1 <0>        -0.1055
      3 N1          4.2486    0.3669    0.0264 N.2       1 <0>         0.1553
      4 C1         -0.5852    0.3233   -0.0303 C.3       1 <0>        -0.0501
      5 C2          0.6957   -0.5080   -0.0210 C.3       1 <0>        -0.0160
      6 C3         -1.8267   -0.5678   -0.0002 C.3       1 <0>        -0.0558
      7 C4          1.9372    0.3726   -0.0084 C.3       1 <0>         0.1210
      8 C5         -3.1038    0.2568    0.0248 C.3       1 <0>        -0.0653
      9 H1         -0.6075    0.9566   -0.9256 H         1 <0>         0.0266
     10 H2         -0.5944    0.9923    0.8388 H         1 <0>         0.0266
     11 H3          0.7260   -1.1691   -0.8962 H         1 <0>         0.0299
     12 H4          0.7128   -1.1690    0.8547 H         1 <0>         0.0299
     13 H5         -1.8365   -1.2221   -0.8796 H         1 <0>         0.0263
     14 H6         -1.8004   -1.2140    0.8850 H         1 <0>         0.0263
     15 H7          1.9268    1.0166    0.8803 H         1 <0>         0.0724
     16 H8          1.9525    1.0051   -0.9052 H         1 <0>         0.0724
     17 H9         -3.1399    0.8976    0.9115 H         1 <0>         0.0230
     18 H10        -3.1770    0.8933   -0.8627 H         1 <0>         0.0230
     19 H11        -3.9789   -0.4003    0.0448 H         1 <0>         0.0230
@<TRIPOS>BOND
     1    1    3 1
     2    1    7 1
     3    2    3 2
     4    4    5 1
     5    4    6 1
     6    4    9 1
     7    4   10 1
     8    5    7 1
     9    5   11 1
    10    5   12 1
    11    6    8 1
    12    6   13 1
    13    6   14 1
    14    7   15 1
    15    7   16 1
    16    8   17 1
    17    8   18 1
    18    8   19 1
