@<TRIPOS>MOLECULE
DB01192
   41    45     0     0     0
SMALL
USER_CHARGES

@<TRIPOS>ATOM
      1 O1          2.5366   -0.1057   -1.3990 O.3       1 <0>        -0.4764
      2 O2         -1.2130   -2.4530   -0.2566 O.3       1 <0>        -0.3860
      3 O3          3.5061   -2.0890    0.1662 O.2       1 <0>        -0.2934
      4 O4          3.9754    2.3566   -0.7651 O.3       1 <0>        -0.5033
      5 N1         -2.5701   -0.0539   -0.4298 N.3       1 <0>        -0.2993
      6 C1          0.2707   -0.5891   -0.7065 C.3       1 <0>         0.0746
      7 C2         -0.5930   -1.3035    0.3436 C.3       1 <0>         0.0957
      8 C3         -1.7105   -0.2877    0.7598 C.3       1 <0>         0.0438
      9 C4          1.6293   -1.2071   -1.0740 C.3       1 <0>         0.1701
     10 C5         -0.5890   -0.2619   -1.9503 C.3       1 <0>        -0.0238
     11 C6          0.8011    0.6822   -0.1389 C.ar      1 <0>         0.0141
     12 C7          0.2496   -1.8358    1.5164 C.3       1 <0>        -0.0147
     13 C8         -1.1211    1.0180    1.4017 C.3       1 <0>        -0.0089
     14 C9         -1.8687    0.5137   -1.5860 C.3       1 <0>         0.0000
     15 C10         0.1693    1.4921    0.7855 C.ar      1 <0>        -0.0382
     16 C11         1.3704   -2.7437    1.0125 C.3       1 <0>         0.0123
     17 C12         2.2817   -1.9987    0.0634 C.2       1 <0>         0.1745
     18 C13         2.0679    0.9315   -0.6265 C.ar      1 <0>         0.1669
     19 C14        -3.7939    0.6822   -0.1319 C.3       1 <0>        -0.0124
     20 C15         0.8367    2.6596    1.1555 C.ar      1 <0>        -0.0546
     21 C16         2.7372    2.0843   -0.2862 C.ar      1 <0>         0.1588
     22 C17         2.1030    2.9597    0.6076 C.ar      1 <0>        -0.0162
     23 H1         -2.3454   -0.7794    1.5094 H         1 <0>         0.0494
     24 H2          1.5564   -1.8733   -1.9412 H         1 <0>         0.0824
     25 H3         -0.8683   -1.1940   -2.4586 H         1 <0>         0.0288
     26 H4         -0.0228    0.3250   -2.6855 H         1 <0>         0.0288
     27 H5         -0.3878   -2.4195    2.1920 H         1 <0>         0.0298
     28 H6          0.6836   -1.0225    2.1076 H         1 <0>         0.0298
     29 H7         -0.9147    0.8013    2.4583 H         1 <0>         0.0329
     30 H8         -1.8523    1.8323    1.3942 H         1 <0>         0.0329
     31 H9         -1.6238    1.5689   -1.4126 H         1 <0>         0.0427
     32 H10        -2.5302    0.4940   -2.4613 H         1 <0>         0.0427
     33 H11         0.9900   -3.6362    0.5068 H         1 <0>         0.0344
     34 H12         1.9659   -3.0823    1.8681 H         1 <0>         0.0344
     35 H13        -0.5528   -2.9169   -0.7978 H         1 <0>         0.2103
     36 H14        -4.4786    0.6370   -0.9864 H         1 <0>         0.0391
     37 H15        -3.6120    1.7378    0.0932 H         1 <0>         0.0391
     38 H16        -4.3249    0.2326    0.7142 H         1 <0>         0.0391
     39 H17         0.3961    3.3380    1.8811 H         1 <0>         0.0622
     40 H18         2.6040    3.8758    0.9128 H         1 <0>         0.0655
     41 H19         4.2418    1.6304   -1.3553 H         1 <0>         0.2923
@<TRIPOS>BOND
     1    1    9 1
     2    1   18 1
     3    2    7 1
     4    2   35 1
     5    3   17 2
     6    4   21 1
     7    4   41 1
     8    5    8 1
     9    5   14 1
    10    5   19 1
    11    6    7 1
    12    6    9 1
    13    6   10 1
    14    6   11 1
    15    7    8 1
    16    7   12 1
    17    8   13 1
    18    8   23 1
    19    9   17 1
    20    9   24 1
    21   10   14 1
    22   10   25 1
    23   10   26 1
    24   11   15 ar
    25   11   18 ar
    26   12   16 1
    27   12   27 1
    28   12   28 1
    29   13   15 1
    30   13   29 1
    31   13   30 1
    32   14   31 1
    33   14   32 1
    34   15   20 ar
    35   16   17 1
    36   16   33 1
    37   16   34 1
    38   18   21 ar
    39   19   36 1
    40   19   37 1
    41   19   38 1
    42   20   22 ar
    43   20   39 1
    44   21   22 ar
    45   22   40 1
