@<TRIPOS>MOLECULE
DB01101
   47    48     0     0     0
SMALL
USER_CHARGES

@<TRIPOS>ATOM
      1 F1          1.0612   -2.5095   -0.0726 F         1 <0>        -0.2003
      2 O1          5.2721   -0.3345   -1.1859 O.3       1 <0>        -0.3482
      3 O2          5.1469    2.2264    1.3212 O.3       1 <0>        -0.3847
      4 O3          7.3625    1.5237   -0.1055 O.3       1 <0>        -0.3865
      5 O4          2.5290    2.6227   -0.6225 O.2       1 <0>        -0.2444
      6 O5         -3.0029   -0.3379   -0.1097 O.3       1 <0>        -0.4501
      7 O6         -1.7486    1.5728   -0.3425 O.2       1 <0>        -0.2261
      8 N1          3.1862    0.4118   -0.4400 N.am      1 <0>        -0.2672
      9 N2          0.8582    1.0950   -0.4066 N.2       1 <0>        -0.1747
     10 N3         -0.7716   -0.5303   -0.1837 N.am      1 <0>        -0.2331
     11 C1          5.2276    0.9023    0.8349 C.3       1 <0>         0.1285
     12 C2          6.6542    0.4774    0.5585 C.3       1 <0>         0.1111
     13 C3          4.5804    0.7406   -0.5298 C.3       1 <0>         0.1680
     14 C4          6.4612   -0.6615   -0.4336 C.3       1 <0>         0.0869
     15 C5          6.2430   -2.0121    0.2353 C.3       1 <0>        -0.0361
     16 C6          2.7870   -0.9129   -0.2973 C.2       1 <0>         0.0506
     17 C7          2.2011    1.4414   -0.4963 C.2       1 <0>         0.3524
     18 C8          1.5044   -1.2499   -0.2113 C.2       1 <0>         0.1797
     19 C9          0.5390   -0.1509   -0.2750 C.2       1 <0>         0.1699
     20 C10        -6.7136    0.3061   -0.0042 C.3       1 <0>        -0.0502
     21 C11        -5.4001   -0.4731    0.0007 C.3       1 <0>        -0.0185
     22 C12        -7.9126   -0.6244    0.1758 C.3       1 <0>        -0.0558
     23 C13        -4.1980    0.4506   -0.1361 C.3       1 <0>         0.0941
     24 C14        -1.8305    0.3544   -0.2232 C.2       1 <0>         0.4057
     25 C15        -9.2200    0.1512    0.2054 C.3       1 <0>        -0.0653
     26 H1          4.7788    0.2332    1.5789 H         1 <0>         0.0665
     27 H2          7.2180    0.2099    1.4559 H         1 <0>         0.0646
     28 H3          4.7017    1.6433   -1.1400 H         1 <0>         0.0867
     29 H4          7.2908   -0.7347   -1.1452 H         1 <0>         0.0621
     30 H5          7.1556   -2.3429    0.7410 H         1 <0>         0.0255
     31 H6          5.9630   -2.7667   -0.5074 H         1 <0>         0.0255
     32 H7          5.4404   -1.9819    0.9783 H         1 <0>         0.0255
     33 H8          4.2044    2.4542    1.3924 H         1 <0>         0.2101
     34 H9          6.9375    1.7012   -0.9611 H         1 <0>         0.2100
     35 H10         3.5456   -1.6803   -0.2538 H         1 <0>         0.0842
     36 H11        -6.8120    0.8567   -0.9477 H         1 <0>         0.0266
     37 H12        -6.7022    1.0483    0.8033 H         1 <0>         0.0266
     38 H13        -5.3059   -1.0531    0.9274 H         1 <0>         0.0298
     39 H14        -5.3903   -1.2074   -0.8145 H         1 <0>         0.0298
     40 H15        -0.9952   -1.5167   -0.0808 H         1 <0>         0.1597
     41 H16        -7.8099   -1.1884    1.1101 H         1 <0>         0.0263
     42 H17        -7.9439   -1.3537   -0.6420 H         1 <0>         0.0263
     43 H18        -4.2493    0.9977   -1.0847 H         1 <0>         0.0698
     44 H19        -4.1758    1.1661    0.6941 H         1 <0>         0.0698
     45 H20        -9.2338    0.8660    1.0343 H         1 <0>         0.0230
     46 H21        -9.3693    0.7037   -0.7278 H         1 <0>         0.0230
     47 H22       -10.0642   -0.5336    0.3334 H         1 <0>         0.0230
@<TRIPOS>BOND
     1    1   18 1
     2    2   13 1
     3    2   14 1
     4    3   11 1
     5    3   33 1
     6    4   12 1
     7    4   34 1
     8    5   17 2
     9    6   23 1
    10    6   24 1
    11    7   24 2
    12    8   13 1
    13    8   16 1
    14    8   17 am
    15    9   17 1
    16    9   19 2
    17   10   19 1
    18   10   24 am
    19   10   40 1
    20   11   12 1
    21   11   13 1
    22   11   26 1
    23   12   14 1
    24   12   27 1
    25   13   28 1
    26   14   15 1
    27   14   29 1
    28   15   30 1
    29   15   31 1
    30   15   32 1
    31   16   18 2
    32   16   35 1
    33   18   19 1
    34   20   21 1
    35   20   22 1
    36   20   36 1
    37   20   37 1
    38   21   23 1
    39   21   38 1
    40   21   39 1
    41   22   25 1
    42   22   41 1
    43   22   42 1
    44   23   43 1
    45   23   44 1
    46   25   45 1
    47   25   46 1
    48   25   47 1
