@<TRIPOS>MOLECULE
DB01231
   50    52     0     0     0
SMALL
USER_CHARGES

@<TRIPOS>ATOM
      1 O1          1.7963   -0.1773    2.0044 O.3       1 <0>        -0.3793
      2 N1         -3.0586   -0.7910    0.3204 N.3       1 <0>        -0.3023
      3 C1         -3.2578    0.5765   -0.1798 C.3       1 <0>        -0.0011
      4 C2         -4.1403   -1.6816   -0.1229 C.3       1 <0>        -0.0011
      5 C3         -1.7604   -1.3091   -0.1102 C.3       1 <0>        -0.0010
      6 C4         -4.5902    1.1518    0.3025 C.3       1 <0>        -0.0402
      7 C5         -5.5017   -1.1802    0.3615 C.3       1 <0>        -0.0402
      8 C6         -5.7574    0.2530   -0.0904 C.3       1 <0>        -0.0507
      9 C7         -0.6303   -0.4469    0.4544 C.3       1 <0>        -0.0370
     10 C8          0.7445   -0.9933    0.0269 C.3       1 <0>        -0.0144
     11 C9          1.9573   -0.1788    0.5729 C.3       1 <0>         0.1159
     12 C10         1.9744    1.2951    0.1354 C.ar      1 <0>        -0.0117
     13 C11         3.2798   -0.8587    0.1904 C.ar      1 <0>        -0.0117
     14 C12         1.5125    1.6081   -1.1187 C.ar      1 <0>        -0.0555
     15 C13         4.3123   -0.8365    1.0960 C.ar      1 <0>        -0.0555
     16 C14         2.4512    2.2311    1.0186 C.ar      1 <0>        -0.0555
     17 C15         3.3731   -1.4597   -1.0411 C.ar      1 <0>        -0.0555
     18 C16         1.5280    2.9454   -1.5154 C.ar      1 <0>        -0.0614
     19 C17         5.5137   -1.4545    0.7483 C.ar      1 <0>        -0.0614
     20 C18         2.4670    3.5682    0.6219 C.ar      1 <0>        -0.0614
     21 C19         4.5743   -2.0774   -1.3887 C.ar      1 <0>        -0.0614
     22 C20         2.0051    3.9257   -0.6451 C.ar      1 <0>        -0.0617
     23 C21         5.6447   -2.0753   -0.4939 C.ar      1 <0>        -0.0617
     24 H1         -3.2160    0.6060   -1.2765 H         1 <0>         0.0426
     25 H2         -2.5054    1.2716    0.2004 H         1 <0>         0.0426
     26 H3         -3.9840   -2.6879    0.2844 H         1 <0>         0.0426
     27 H4         -4.1494   -1.7705   -1.2173 H         1 <0>         0.0426
     28 H5         -1.6938   -1.3495   -1.2052 H         1 <0>         0.0426
     29 H6         -1.6327   -2.3335    0.2616 H         1 <0>         0.0426
     30 H7         -4.7374    2.1522   -0.1202 H         1 <0>         0.0278
     31 H8         -4.5690    1.2658    1.3940 H         1 <0>         0.0278
     32 H9         -5.5433   -1.2310    1.4570 H         1 <0>         0.0278
     33 H10        -6.2941   -1.8345   -0.0191 H         1 <0>         0.0278
     34 H11        -6.6867    0.6275    0.3527 H         1 <0>         0.0266
     35 H12        -5.8866    0.2761   -1.1794 H         1 <0>         0.0266
     36 H13        -0.7004   -0.4212    1.5485 H         1 <0>         0.0279
     37 H14        -0.6942    0.5807    0.0966 H         1 <0>         0.0279
     38 H15         0.7335   -1.0727   -1.0641 H         1 <0>         0.0300
     39 H16         0.8171   -2.0231    0.4063 H         1 <0>         0.0300
     40 H17         1.8536   -1.0969    2.3167 H         1 <0>         0.2111
     41 H18         1.1551    0.8716   -1.8280 H         1 <0>         0.0621
     42 H19         4.2392   -0.3511    2.0634 H         1 <0>         0.0621
     43 H20         2.8306    1.9814    2.0038 H         1 <0>         0.0621
     44 H21         2.5833   -1.4585   -1.7812 H         1 <0>         0.0621
     45 H22         1.1733    3.2233   -2.5037 H         1 <0>         0.0618
     46 H23         6.3482   -1.4499    1.4435 H         1 <0>         0.0618
     47 H24         2.8421    4.3312    1.2978 H         1 <0>         0.0618
     48 H25         4.6799   -2.5538   -2.3591 H         1 <0>         0.0618
     49 H26         2.0190    4.9666   -0.9544 H         1 <0>         0.0618
     50 H27         6.5808   -2.5543   -0.7657 H         1 <0>         0.0618
@<TRIPOS>BOND
     1    1   11 1
     2    1   40 1
     3    2    3 1
     4    2    4 1
     5    2    5 1
     6    3    6 1
     7    3   24 1
     8    3   25 1
     9    4    7 1
    10    4   26 1
    11    4   27 1
    12    5    9 1
    13    5   28 1
    14    5   29 1
    15    6    8 1
    16    6   30 1
    17    6   31 1
    18    7    8 1
    19    7   32 1
    20    7   33 1
    21    8   34 1
    22    8   35 1
    23    9   10 1
    24    9   36 1
    25    9   37 1
    26   10   11 1
    27   10   38 1
    28   10   39 1
    29   11   12 1
    30   11   13 1
    31   12   14 ar
    32   12   16 ar
    33   13   15 ar
    34   13   17 ar
    35   14   18 ar
    36   14   41 1
    37   15   19 ar
    38   15   42 1
    39   16   20 ar
    40   16   43 1
    41   17   21 ar
    42   17   44 1
    43   18   22 ar
    44   18   45 1
    45   19   23 ar
    46   19   46 1
    47   20   22 ar
    48   20   47 1
    49   21   23 ar
    50   21   48 1
    51   22   49 1
    52   23   50 1
