@<TRIPOS>MOLECULE
DB01161
   37    37     0     0     0
SMALL
USER_CHARGES

@<TRIPOS>ATOM
      1 Cl1        -3.3535    3.0441    0.6724 Cl        1 <0>        -0.0826
      2 O1         -0.6281    0.2459   -0.2741 O.3       1 <0>        -0.4598
      3 O2         -1.3668    1.9984   -1.5710 O.2       1 <0>        -0.2449
      4 N1          3.0374   -0.1197   -0.1472 N.3       1 <0>        -0.2996
      5 N2         -6.7403   -0.7877    0.5697 N.pl3     1 <0>        -0.3579
      6 C1          1.6338   -0.4107    0.1430 C.3       1 <0>         0.0332
      7 C2          3.9075   -1.0964    0.5067 C.3       1 <0>        -0.0038
      8 C3          3.3778    1.2362    0.2820 C.3       1 <0>        -0.0038
      9 C4          0.7226    0.5758   -0.5698 C.3       1 <0>         0.1054
     10 C5          3.5748   -2.5106    0.0780 C.3       1 <0>        -0.0524
     11 C6          4.8110    1.5841   -0.0629 C.3       1 <0>        -0.0524
     12 C7         -1.5763    1.0415   -0.8417 C.2       1 <0>         0.3406
     13 C8         -2.9386    0.5947   -0.4554 C.ar      1 <0>         0.0774
     14 C9         -3.7961    1.4356    0.2259 C.ar      1 <0>         0.0567
     15 C10        -3.3026   -0.6915   -0.8082 C.ar      1 <0>        -0.0446
     16 C11        -5.4556   -0.3203    0.2230 C.ar      1 <0>         0.0260
     17 C12        -5.0671    0.9741    0.5687 C.ar      1 <0>        -0.0219
     18 C13        -4.5733   -1.1530   -0.4654 C.ar      1 <0>        -0.0402
     19 H1          1.4267   -0.3970    1.2216 H         1 <0>         0.0460
     20 H2          1.3398   -1.4034   -0.2150 H         1 <0>         0.0460
     21 H3          4.9506   -0.9363    0.2146 H         1 <0>         0.0424
     22 H4          3.8562   -1.0221    1.6004 H         1 <0>         0.0424
     23 H5          2.7866    1.9825   -0.2549 H         1 <0>         0.0424
     24 H6          3.2051    1.3840    1.3554 H         1 <0>         0.0424
     25 H7          0.8808    0.5328   -1.6543 H         1 <0>         0.0710
     26 H8          0.8662    1.6013   -0.2200 H         1 <0>         0.0710
     27 H9          2.6612   -2.8882    0.5479 H         1 <0>         0.0242
     28 H10         3.4786   -2.5959   -1.0099 H         1 <0>         0.0242
     29 H11         4.3815   -3.1860    0.3855 H         1 <0>         0.0242
     30 H12         5.5322    1.0902    0.5957 H         1 <0>         0.0242
     31 H13         5.0515    1.3358   -1.1023 H         1 <0>         0.0242
     32 H14         4.9684    2.6621    0.0584 H         1 <0>         0.0242
     33 H15        -2.6256   -1.3473   -1.3482 H         1 <0>         0.0627
     34 H16        -5.7581    1.6206    1.1057 H         1 <0>         0.0651
     35 H17        -4.8648   -2.1632   -0.7413 H         1 <0>         0.0636
     36 H18        -7.0224   -1.7258    0.3186 H         1 <0>         0.1423
     37 H19        -7.3812   -0.1847    1.0682 H         1 <0>         0.1423
@<TRIPOS>BOND
     1    1   14 1
     2    2    9 1
     3    2   12 1
     4    3   12 2
     5    4    6 1
     6    4    7 1
     7    4    8 1
     8    5   16 1
     9    5   36 1
    10    5   37 1
    11    6    9 1
    12    6   19 1
    13    6   20 1
    14    7   10 1
    15    7   21 1
    16    7   22 1
    17    8   11 1
    18    8   23 1
    19    8   24 1
    20    9   25 1
    21    9   26 1
    22   10   27 1
    23   10   28 1
    24   10   29 1
    25   11   30 1
    26   11   31 1
    27   11   32 1
    28   12   13 1
    29   13   14 ar
    30   13   15 ar
    31   14   17 ar
    32   15   18 ar
    33   15   33 1
    34   16   17 ar
    35   16   18 ar
    36   17   34 1
    37   18   35 1
