@<TRIPOS>MOLECULE
DB01217
   41    42     0     0     0
SMALL
USER_CHARGES

@<TRIPOS>ATOM
      1 N1          3.2453   -1.4612   -0.2491 N.pl3     1 <0>        -0.2477
      2 N2          4.1294   -0.5594    0.1631 N.2       1 <0>        -0.1581
      3 N3         -2.2838    3.8823   -1.6044 N.1       1 <0>        -0.1957
      4 N4         -3.0514   -1.3509    2.8407 N.1       1 <0>        -0.1957
      5 N5          4.2608   -2.5171    1.3389 N.2       1 <0>        -0.2228
      6 C1         -0.3290    2.9053   -0.0830 C.3       1 <0>         0.0766
      7 C2         -2.3722   -1.6430    0.2826 C.3       1 <0>         0.0766
      8 C3         -0.2241    1.4257   -0.2386 C.ar      1 <0>        -0.0274
      9 C4         -1.2107   -0.7725   -0.0611 C.ar      1 <0>        -0.0274
     10 C5         -1.3099    0.6114    0.0832 C.ar      1 <0>        -0.0524
     11 C6          1.0600   -0.5276   -0.8490 C.ar      1 <0>        -0.0255
     12 C7          0.9609    0.8562   -0.7047 C.ar      1 <0>        -0.0521
     13 C8         -0.0258   -1.3420   -0.5272 C.ar      1 <0>        -0.0521
     14 C9          2.3275   -1.1368   -1.3461 C.3       1 <0>         0.0682
     15 C10         0.9521    3.7168   -0.4657 C.3       1 <0>        -0.0428
     16 C11        -0.6416    3.2900    1.3960 C.3       1 <0>        -0.0428
     17 C12        -2.1500   -3.1773    0.0753 C.3       1 <0>        -0.0428
     18 C13        -3.6173   -1.2795   -0.5834 C.3       1 <0>        -0.0428
     19 C14        -1.4286    3.4720   -0.9355 C.1       1 <0>         0.0734
     20 C15        -2.7679   -1.4892    1.7237 C.1       1 <0>         0.0734
     21 C16         3.3137   -2.6163    0.4352 C.cat     1 <0>         0.1146
     22 C17         4.7283   -1.2503    1.1354 C.2       1 <0>         0.1380
     23 H1         -2.2331    1.0552    0.4465 H         1 <0>         0.0624
     24 H2          1.8279    1.4542   -0.9645 H         1 <0>         0.0624
     25 H3          0.0913   -2.4130   -0.6527 H         1 <0>         0.0624
     26 H4          2.1379   -2.0670   -1.8956 H         1 <0>         0.0559
     27 H5          2.8589   -0.4674   -2.0336 H         1 <0>         0.0559
     28 H6          1.2236    3.5722   -1.5189 H         1 <0>         0.0248
     29 H7          1.8088    3.4356    0.1579 H         1 <0>         0.0248
     30 H8          0.7936    4.7944   -0.3296 H         1 <0>         0.0248
     31 H9         -1.6049    2.8899    1.7333 H         1 <0>         0.0248
     32 H10         0.1320    2.9055    2.0713 H         1 <0>         0.0248
     33 H11        -0.6911    4.3784    1.5250 H         1 <0>         0.0248
     34 H12        -1.3310   -3.5559    0.6994 H         1 <0>         0.0248
     35 H13        -1.9299   -3.4147   -0.9722 H         1 <0>         0.0248
     36 H14        -3.0449   -3.7482    0.3547 H         1 <0>         0.0248
     37 H15        -3.9581   -0.2523   -0.4085 H         1 <0>         0.0248
     38 H16        -3.3915   -1.3766   -1.6521 H         1 <0>         0.0248
     39 H17        -4.4675   -1.9351   -0.3578 H         1 <0>         0.0248
     40 H18         2.6824   -3.4754    0.2568 H         1 <0>         0.1044
     41 H19         5.5300   -0.8168    1.7144 H         1 <0>         0.1065
@<TRIPOS>BOND
     1    1    2 1
     2    1   14 1
     3    1   21 2
     4    2   22 1
     5    3   19 3
     6    4   20 3
     7    5   21 1
     8    5   22 2
     9    6    8 1
    10    6   15 1
    11    6   16 1
    12    6   19 1
    13    7    9 1
    14    7   17 1
    15    7   18 1
    16    7   20 1
    17    8   10 ar
    18    8   12 ar
    19    9   10 ar
    20    9   13 ar
    21   10   23 1
    22   11   12 ar
    23   11   13 ar
    24   11   14 1
    25   12   24 1
    26   13   25 1
    27   14   26 1
    28   14   27 1
    29   15   28 1
    30   15   29 1
    31   15   30 1
    32   16   31 1
    33   16   32 1
    34   16   33 1
    35   17   34 1
    36   17   35 1
    37   17   36 1
    38   18   37 1
    39   18   38 1
    40   18   39 1
    41   21   40 1
    42   22   41 1
