@<TRIPOS>MOLECULE
DB01168
   35    35     0     0     0
SMALL
USER_CHARGES

@<TRIPOS>ATOM
      1 O1          2.7108    2.0230    0.8897 O.2       1 <0>        -0.2702
      2 N1          2.9799   -0.1495    0.1677 N.am      1 <0>        -0.3090
      3 N2         -4.0200   -0.3704    0.0017 N.3       1 <0>        -0.2525
      4 N3         -5.4186   -0.3946   -0.3324 N.3       1 <0>        -0.2594
      5 C1          4.4221   -0.2076    0.4012 C.3       1 <0>         0.0178
      6 C2         -1.9208    0.7365   -0.4789 C.ar      1 <0>        -0.0322
      7 C3          0.7837    0.9031    0.1203 C.ar      1 <0>         0.0367
      8 C4          2.2155    0.9914    0.4370 C.2       1 <0>         0.2443
      9 C5         -3.3746    0.6465   -0.8000 C.3       1 <0>         0.0357
     10 C6          5.1782    0.2633   -0.8380 C.3       1 <0>        -0.0469
     11 C7          4.8189   -1.6319    0.7768 C.3       1 <0>        -0.0469
     12 C8         -1.4802    1.6017    0.5228 C.ar      1 <0>        -0.0566
     13 C9         -1.0019   -0.0451   -1.1792 C.ar      1 <0>        -0.0566
     14 C10        -0.1207    1.6855    0.8238 C.ar      1 <0>        -0.0493
     15 C11         0.3576    0.0387   -0.8780 C.ar      1 <0>        -0.0493
     16 C12        -6.0705   -1.4112    0.4827 C.3       1 <0>        -0.0009
     17 H1          4.6630    0.4595    1.2369 H         1 <0>         0.0493
     18 H2          2.5424   -0.9894   -0.1953 H         1 <0>         0.1493
     19 H3         -3.8379    1.6306   -0.6419 H         1 <0>         0.0487
     20 H4         -3.4925    0.4276   -1.8702 H         1 <0>         0.0487
     21 H5          6.2597    0.2326   -0.6710 H         1 <0>         0.0247
     22 H6          4.9472   -0.3644   -1.7059 H         1 <0>         0.0247
     23 H7          4.9042    1.2923   -1.0945 H         1 <0>         0.0247
     24 H8          4.2777   -1.9620    1.6704 H         1 <0>         0.0247
     25 H9          5.8914   -1.6956    0.9873 H         1 <0>         0.0247
     26 H10         4.5866   -2.3371   -0.0290 H         1 <0>         0.0247
     27 H11        -2.1861    2.2140    1.0777 H         1 <0>         0.0621
     28 H12        -1.3317   -0.7187   -1.9659 H         1 <0>         0.0621
     29 H13         0.2053    2.3611    1.6096 H         1 <0>         0.0625
     30 H14         1.0405   -0.5610   -1.4714 H         1 <0>         0.0625
     31 H15        -3.9209   -0.1364    0.9902 H         1 <0>         0.1409
     32 H16        -5.8332    0.5127   -0.1184 H         1 <0>         0.1402
     33 H17        -7.1357   -1.4476    0.2336 H         1 <0>         0.0402
     34 H18        -5.9852   -1.1921    1.5529 H         1 <0>         0.0402
     35 H19        -5.6543   -2.4057    0.2877 H         1 <0>         0.0402
@<TRIPOS>BOND
     1    1    8 2
     2    2    5 1
     3    2    8 am
     4    2   18 1
     5    3    4 1
     6    3    9 1
     7    3   31 1
     8    4   16 1
     9    4   32 1
    10    5   10 1
    11    5   11 1
    12    5   17 1
    13    6    9 1
    14    6   12 ar
    15    6   13 ar
    16    7    8 1
    17    7   14 ar
    18    7   15 ar
    19    9   19 1
    20    9   20 1
    21   10   21 1
    22   10   22 1
    23   10   23 1
    24   11   24 1
    25   11   25 1
    26   11   26 1
    27   12   14 ar
    28   12   27 1
    29   13   15 ar
    30   13   28 1
    31   14   29 1
    32   15   30 1
    33   16   33 1
    34   16   34 1
    35   16   35 1
