@<TRIPOS>MOLECULE
DB01247
   30    31     0     0     0
SMALL
USER_CHARGES

@<TRIPOS>ATOM
      1 O1          4.5325    1.2170   -0.4720 O.3       1 <0>        -0.3592
      2 O2          1.3433   -1.5290    1.0696 O.2       1 <0>        -0.2671
      3 N1         -0.7088    0.2306    0.6273 N.3       1 <0>        -0.2360
      4 N2          0.6127    0.5379    0.3470 N.am      1 <0>        -0.2453
      5 N3          3.1590    1.1746   -0.2651 N.2       1 <0>        -0.0734
      6 C1         -1.5166    0.3511   -0.5875 C.3       1 <0>         0.0387
      7 C2         -2.9646    0.0980   -0.3342 C.ar      1 <0>        -0.0320
      8 C3         -3.4760   -1.1951   -0.4428 C.ar      1 <0>        -0.0573
      9 C4         -3.8075    1.1545    0.0109 C.ar      1 <0>        -0.0573
     10 C5          2.9597   -0.0213    0.2524 C.2       1 <0>         0.1690
     11 C6          1.5874   -0.4162    0.6035 C.2       1 <0>         0.2792
     12 C7         -4.8299   -1.4320   -0.2060 C.ar      1 <0>        -0.0615
     13 C8         -5.1615    0.9177    0.2476 C.ar      1 <0>        -0.0615
     14 C9          4.1024   -0.7859    0.4081 C.2       1 <0>         0.0125
     15 C10         5.0831    0.0439   -0.0673 C.2       1 <0>         0.1350
     16 C11        -5.6728   -0.3755    0.1393 C.ar      1 <0>        -0.0617
     17 C12         6.5381   -0.0836   -0.2160 C.3       1 <0>        -0.0037
     18 H1         -1.1536   -0.3549   -1.3467 H         1 <0>         0.0490
     19 H2         -1.3978    1.3508   -1.0278 H         1 <0>         0.0490
     20 H3         -1.0252    0.9148    1.3144 H         1 <0>         0.1446
     21 H4         -2.8298   -2.0274   -0.7093 H         1 <0>         0.0621
     22 H5         -3.4214    2.1665    0.1005 H         1 <0>         0.0621
     23 H6          0.8299    1.4554   -0.0302 H         1 <0>         0.1693
     24 H7          4.2220   -1.7847    0.8007 H         1 <0>         0.0676
     25 H8         -5.2282   -2.4389   -0.2900 H         1 <0>         0.0618
     26 H9         -5.8178    1.7401    0.5171 H         1 <0>         0.0618
     27 H10        -6.7271   -0.5599    0.3239 H         1 <0>         0.0618
     28 H11         7.0532    0.6892    0.3628 H         1 <0>         0.0309
     29 H12         6.8872   -1.0595    0.1357 H         1 <0>         0.0309
     30 H13         6.8284    0.0217   -1.2659 H         1 <0>         0.0309
@<TRIPOS>BOND
     1    1    5 1
     2    1   15 1
     3    2   11 2
     4    3    4 1
     5    3    6 1
     6    3   20 1
     7    4   11 am
     8    4   23 1
     9    5   10 2
    10    6    7 1
    11    6   18 1
    12    6   19 1
    13    7    8 ar
    14    7    9 ar
    15    8   12 ar
    16    8   21 1
    17    9   13 ar
    18    9   22 1
    19   10   11 1
    20   10   14 1
    21   12   16 ar
    22   12   25 1
    23   13   16 ar
    24   13   26 1
    25   14   15 2
    26   14   24 1
    27   15   17 1
    28   16   27 1
    29   17   28 1
    30   17   29 1
    31   17   30 1
