@<TRIPOS>MOLECULE
DB01011
   31    32     0     0     0
SMALL
USER_CHARGES

@<TRIPOS>ATOM
      1 O1          0.5872    1.6370   -2.0753 O.2       1 <0>        -0.2911
      2 N1         -2.0093   -1.7917    1.8613 N.ar      1 <0>        -0.2630
      3 N2          3.8251    0.3491    0.6014 N.ar      1 <0>        -0.2626
      4 C1         -0.7498    1.1698   -0.0991 C.3       1 <0>         0.0543
      5 C2         -1.3657   -0.2009    0.2175 C.ar      1 <0>        -0.0162
      6 C3         -0.3804    2.0265    1.1322 C.3       1 <0>        -0.0486
      7 C4         -1.8163    1.9788   -0.8844 C.3       1 <0>        -0.0486
      8 C5          0.5200    1.0745   -0.9807 C.2       1 <0>         0.1745
      9 C6          1.7283    0.3254   -0.5380 C.ar      1 <0>         0.0363
     10 C7         -1.7883   -0.9968   -0.8094 C.ar      1 <0>        -0.0548
     11 C8         -1.4780   -0.5979    1.5147 C.ar      1 <0>         0.0317
     12 C9         -2.3409   -2.2327   -0.4924 C.ar      1 <0>        -0.0433
     13 C10         1.8533   -1.0063   -0.8439 C.ar      1 <0>        -0.0483
     14 C11         2.7043    0.9698    0.1699 C.ar      1 <0>         0.0380
     15 C12        -2.4280   -2.5801    0.8460 C.ar      1 <0>         0.0276
     16 C13         2.9927   -1.6793   -0.4171 C.ar      1 <0>        -0.0429
     17 C14         3.9405   -0.9628    0.2958 C.ar      1 <0>         0.0276
     18 H1          0.3518    1.5319    1.7798 H         1 <0>         0.0242
     19 H2         -1.2618    2.2617    1.7406 H         1 <0>         0.0242
     20 H3          0.0666    2.9808    0.8266 H         1 <0>         0.0242
     21 H4         -2.7554    2.0488   -0.3220 H         1 <0>         0.0242
     22 H5         -2.0479    1.5414   -1.8622 H         1 <0>         0.0242
     23 H6         -1.4732    3.0031   -1.0770 H         1 <0>         0.0242
     24 H7         -1.6959   -0.7109   -1.8514 H         1 <0>         0.0621
     25 H8         -1.1618   -0.0128    2.3678 H         1 <0>         0.0832
     26 H9         -2.6883   -2.9048   -1.2688 H         1 <0>         0.0633
     27 H10         1.0985   -1.5376   -1.4137 H         1 <0>         0.0625
     28 H11         2.6391    2.0223    0.4235 H         1 <0>         0.0836
     29 H12        -2.8495   -3.5338    1.1458 H         1 <0>         0.0829
     30 H13         3.1356   -2.7309   -0.6377 H         1 <0>         0.0633
     31 H14         4.8474   -1.4415    0.6505 H         1 <0>         0.0829
@<TRIPOS>BOND
     1    1    8 2
     2    2   11 ar
     3    2   15 ar
     4    3   14 ar
     5    3   17 ar
     6    4    5 1
     7    4    6 1
     8    4    7 1
     9    4    8 1
    10    5   10 ar
    11    5   11 ar
    12    6   18 1
    13    6   19 1
    14    6   20 1
    15    7   21 1
    16    7   22 1
    17    7   23 1
    18    8    9 1
    19    9   13 ar
    20    9   14 ar
    21   10   12 ar
    22   10   24 1
    23   11   25 1
    24   12   15 ar
    25   12   26 1
    26   13   16 ar
    27   13   27 1
    28   14   28 1
    29   15   29 1
    30   16   17 ar
    31   16   30 1
    32   17   31 1
