@<TRIPOS>MOLECULE
DB01068
   32    34     0     0     0
SMALL
USER_CHARGES

@<TRIPOS>ATOM
      1 Cl1         1.2582   -1.6362    2.3973 Cl        1 <0>        -0.0829
      2 O1         -2.2838   -3.9722    0.2602 O.2       1 <0>        -0.2734
      3 O2         -2.1039    4.5721    0.0420 O.3       1 <0>        -0.5760
      4 O3         -0.1943    4.0409   -0.9014 O.2       1 <0>         0.0414
      5 N1         -2.4307   -1.7129    0.6020 N.am      1 <0>        -0.2834
      6 N2          0.1281   -2.1336   -0.9457 N.2       1 <0>        -0.2733
      7 N3         -1.2612    3.7181   -0.3254 N.pl3     1 <0>         0.0796
      8 C1         -0.8299    0.0175   -0.2012 C.ar      1 <0>         0.0282
      9 C2         -2.0486   -0.3740    0.3771 C.ar      1 <0>         0.0431
     10 C3          0.2798   -0.9524   -0.4513 C.2       1 <0>         0.0766
     11 C4          1.6693   -0.5613   -0.0766 C.ar      1 <0>         0.0189
     12 C5         -0.5883    1.3783   -0.4530 C.ar      1 <0>         0.0265
     13 C6         -2.9569    0.6123    0.7903 C.ar      1 <0>        -0.0334
     14 C7         -1.1963   -2.5672   -1.3339 C.3       1 <0>         0.1167
     15 C8         -1.5230    2.3439   -0.0814 C.ar      1 <0>         0.2739
     16 C9         -1.9897   -2.8256   -0.0808 C.2       1 <0>         0.2386
     17 C10        -2.6988    1.9626    0.5559 C.ar      1 <0>         0.0174
     18 C11         2.1887   -0.8318    1.1848 C.ar      1 <0>         0.0501
     19 C12         2.4403    0.0888   -1.0348 C.ar      1 <0>        -0.0512
     20 C13         3.4940   -0.4479    1.4920 C.ar      1 <0>        -0.0427
     21 C14         3.7457    0.4727   -0.7275 C.ar      1 <0>        -0.0611
     22 C15         4.2725    0.2044    0.5359 C.ar      1 <0>        -0.0603
     23 H1          0.3362    1.6844   -0.9309 H         1 <0>         0.0692
     24 H2         -3.1565   -1.8674    1.2974 H         1 <0>         0.1549
     25 H3         -3.8931    0.3348    1.2703 H         1 <0>         0.0638
     26 H4         -1.1149   -3.5059   -1.8927 H         1 <0>         0.0605
     27 H5         -1.7080   -1.8559   -1.9925 H         1 <0>         0.0605
     28 H6         -3.4433    2.6867    0.8765 H         1 <0>         0.0686
     29 H7          2.0472    0.2947   -2.0268 H         1 <0>         0.0625
     30 H8          3.9195   -0.6494    2.4718 H         1 <0>         0.0632
     31 H9          4.3528    0.9785   -1.4726 H         1 <0>         0.0618
     32 H10         5.2890    0.5029    0.7749 H         1 <0>         0.0618
@<TRIPOS>BOND
     1    1   18 1
     2    2   16 2
     3    3    7 1
     4    4    7 2
     5    5    9 1
     6    5   16 am
     7    5   24 1
     8    6   10 2
     9    6   14 1
    10    7   15 1
    11    8    9 ar
    12    8   10 1
    13    8   12 ar
    14    9   13 ar
    15   10   11 1
    16   11   18 ar
    17   11   19 ar
    18   12   15 ar
    19   12   23 1
    20   13   17 ar
    21   13   25 1
    22   14   16 1
    23   14   26 1
    24   14   27 1
    25   15   17 ar
    26   17   28 1
    27   18   20 ar
    28   19   21 ar
    29   19   29 1
    30   20   22 ar
    31   20   30 1
    32   21   22 ar
    33   21   31 1
    34   22   32 1
