@<TRIPOS>MOLECULE
DB01015
   28    29     0     0     0
SMALL
USER_CHARGES

@<TRIPOS>ATOM
      1 S1          0.3653    2.6889    0.5449 S.o2      1 <0>         0.0736
      2 O1         -2.6084   -0.4652    1.2487 O.3       1 <0>        -0.3581
      3 O2          1.0453    3.7463   -0.1938 O.2       1 <0>        -0.1499
      4 O3          0.1175    2.8750    1.9694 O.2       1 <0>        -0.1499
      5 N1         -1.1196    2.3453   -0.2585 N.pl3     1 <0>        -0.1968
      6 N2         -1.8537    0.6984    1.3352 N.2       1 <0>        -0.0617
      7 N3          3.4653   -2.3290   -0.2088 N.pl3     1 <0>        -0.3580
      8 C1          1.2753    1.2154    0.3236 C.ar      1 <0>         0.1087
      9 C2          2.0950    1.0633   -0.7948 C.ar      1 <0>        -0.0333
     10 C3          1.1829    0.1903    1.2650 C.ar      1 <0>        -0.0333
     11 C4         -1.8165    1.1378    0.0947 C.2       1 <0>         0.1807
     12 C5          2.7294   -1.1389   -0.0306 C.ar      1 <0>         0.0247
     13 C6          2.8219   -0.1139   -0.9718 C.ar      1 <0>        -0.0392
     14 C7          1.9099   -0.9869    1.0879 C.ar      1 <0>        -0.0392
     15 C8         -2.4940    0.3515   -0.8227 C.2       1 <0>         0.0232
     16 C9         -2.9839   -0.6611   -0.0411 C.2       1 <0>         0.1361
     17 C10        -3.7942   -1.8541   -0.3148 C.3       1 <0>        -0.0036
     18 H1         -1.1964    2.6410   -1.2404 H         1 <0>         0.1753
     19 H2          2.1769    1.8449   -1.5447 H         1 <0>         0.0638
     20 H3          0.5807    0.2916    2.1624 H         1 <0>         0.0638
     21 H4          3.4559   -0.2211   -1.8484 H         1 <0>         0.0636
     22 H5          1.8351   -1.7757    1.8321 H         1 <0>         0.0636
     23 H6         -2.6194    0.4799   -1.8876 H         1 <0>         0.0688
     24 H7         -4.0480   -1.9243   -1.3771 H         1 <0>         0.0309
     25 H8         -3.2495   -2.7615   -0.0361 H         1 <0>         0.0309
     26 H9         -4.7278   -1.8244    0.2552 H         1 <0>         0.0309
     27 H10         4.0583   -2.4407   -1.0204 H         1 <0>         0.1423
     28 H11         3.3971   -3.0731    0.4726 H         1 <0>         0.1423
@<TRIPOS>BOND
     1    1    3 2
     2    1    4 2
     3    1    5 1
     4    1    8 1
     5    2    6 1
     6    2   16 1
     7    5   11 1
     8    5   18 1
     9    6   11 2
    10    7   12 1
    11    7   27 1
    12    7   28 1
    13    8    9 ar
    14    8   10 ar
    15    9   13 ar
    16    9   19 1
    17   10   14 ar
    18   10   20 1
    19   11   15 1
    20   12   13 ar
    21   12   14 ar
    22   13   21 1
    23   14   22 1
    24   15   16 2
    25   15   23 1
    26   16   17 1
    27   17   24 1
    28   17   25 1
    29   17   26 1
