@<TRIPOS>MOLECULE
DB01563
   10     9     0     0     0
SMALL
USER_CHARGES

@<TRIPOS>ATOM
      1 Cl1         1.2585    2.0512   -0.1344 Cl        1 <0>        -0.0780
      2 Cl2         1.4161   -0.4282   -1.6530 Cl        1 <0>        -0.0780
      3 Cl3         2.0594   -0.4080    1.1856 Cl        1 <0>        -0.0780
      4 O1         -0.7400   -1.4134    0.3412 O.3       1 <0>        -0.3639
      5 O2         -1.3594    0.5978   -0.6695 O.3       1 <0>        -0.3639
      6 C1         -0.4905   -0.0114    0.2819 C.3       1 <0>         0.2013
      7 C2          0.9780    0.2814   -0.0678 C.3       1 <0>         0.2404
      8 H1         -0.7336    0.4062    1.2663 H         1 <0>         0.0950
      9 H2         -0.1841   -1.8424   -0.3311 H         1 <0>         0.2126
     10 H3         -2.2044    0.7667   -0.2192 H         1 <0>         0.2126
@<TRIPOS>BOND
     1    1    7 1
     2    2    7 1
     3    3    7 1
     4    4    6 1
     5    4    9 1
     6    5    6 1
     7    5   10 1
     8    6    7 1
     9    6    8 1
