@<TRIPOS>MOLECULE
DB01136
   56    59     0     0     0
SMALL
USER_CHARGES

@<TRIPOS>ATOM
      1 O1         -2.6138   -1.4675    0.0004 O.3       1 <0>        -0.4887
      2 O2         -2.5742   -4.2452   -0.1004 O.3       1 <0>        -0.3872
      3 O3          2.6632   -0.5960    0.6657 O.3       1 <0>        -0.4870
      4 O4          1.2202    0.8688   -1.2111 O.3       1 <0>        -0.4915
      5 N1         -2.6444    3.0944    0.9339 N.pl3     1 <0>        -0.3540
      6 N2          0.7282   -2.5844    0.1152 N.3       1 <0>        -0.3102
      7 C1         -2.6778    0.9201    0.4404 C.2       1 <0>         0.0490
      8 C2         -1.7119    1.1419    1.4730 C.ar      1 <0>         0.0109
      9 C3         -3.2423    2.1565    0.1257 C.2       1 <0>         0.0510
     10 C4         -1.7143    2.5074    1.7590 C.ar      1 <0>         0.0476
     11 C5         -3.1246   -0.2223   -0.2564 C.2       1 <0>         0.1303
     12 C6         -1.4661   -3.4888   -0.5969 C.3       1 <0>         0.1015
     13 C7         -1.9802   -2.1359   -1.0841 C.3       1 <0>         0.1166
     14 C8         -0.4259   -3.3757    0.5199 C.3       1 <0>         0.0253
     15 C9         -4.2322    2.3099   -0.8516 C.2       1 <0>        -0.0375
     16 C10        -0.8340    0.3038    2.1920 C.ar      1 <0>        -0.0519
     17 C11        -4.1138   -0.0847   -1.2366 C.2       1 <0>        -0.0192
     18 C12        -0.8826    3.0791    2.7287 C.ar      1 <0>        -0.0378
     19 C13        -4.6582    1.1638   -1.5281 C.2       1 <0>        -0.0563
     20 C14         1.8601   -2.8242    1.0001 C.3       1 <0>         0.0302
     21 C15         0.0036    0.8610    3.1648 C.ar      1 <0>        -0.0611
     22 C16        -0.0220    2.2285    3.4276 C.ar      1 <0>        -0.0598
     23 C17         3.0471   -1.9631    0.5985 C.3       1 <0>         0.1022
     24 C18         3.2994    0.2671   -0.1879 C.ar      1 <0>         0.1619
     25 C19         2.5735    0.9989   -1.1275 C.ar      1 <0>         0.1615
     26 C20         4.6850    0.4102   -0.1117 C.ar      1 <0>        -0.0163
     27 C21         3.2329    1.8740   -1.9908 C.ar      1 <0>        -0.0163
     28 C22         5.3443    1.2852   -0.9749 C.ar      1 <0>        -0.0581
     29 C23         4.6185    2.0170   -1.9144 C.ar      1 <0>        -0.0581
     30 C24         0.5531    1.6524   -2.1985 C.3       1 <0>         0.0790
     31 H1         -1.0378   -4.0419   -1.4413 H         1 <0>         0.0640
     32 H2         -2.8595    4.0819    0.9229 H         1 <0>         0.1659
     33 H3         -2.7098   -2.3159   -1.8820 H         1 <0>         0.0723
     34 H4         -1.1710   -1.5185   -1.4907 H         1 <0>         0.0723
     35 H5         -0.1193   -4.3989    0.7773 H         1 <0>         0.0450
     36 H6         -0.8795   -2.9720    1.4326 H         1 <0>         0.0450
     37 H7         -4.6574    3.2819   -1.0786 H         1 <0>         0.0638
     38 H8         -0.8060   -0.7636    2.0106 H         1 <0>         0.0624
     39 H9         -4.4891   -0.9519   -1.7735 H         1 <0>         0.0654
     40 H10        -0.9021    4.1444    2.9339 H         1 <0>         0.0638
     41 H11         0.4904   -1.5936    0.1094 H         1 <0>         0.1221
     42 H12        -5.4291    1.2489   -2.2897 H         1 <0>         0.0619
     43 H13         1.5748   -2.5768    2.0301 H         1 <0>         0.0457
     44 H14         2.1597   -3.8778    0.9684 H         1 <0>         0.0457
     45 H15         0.6803    0.2175    3.7209 H         1 <0>         0.0618
     46 H16         0.6366    2.6414    4.1872 H         1 <0>         0.0618
     47 H17         3.8780   -2.1342    1.2921 H         1 <0>         0.0709
     48 H18         3.3768   -2.2329   -0.4137 H         1 <0>         0.0709
     49 H19        -3.2134   -4.3395   -0.8271 H         1 <0>         0.2100
     50 H20         5.2627   -0.1471    0.6206 H         1 <0>         0.0655
     51 H21         2.7347    2.4746   -2.7440 H         1 <0>         0.0655
     52 H22         6.4229    1.3980   -0.9142 H         1 <0>         0.0619
     53 H23         5.1331    2.6986   -2.5856 H         1 <0>         0.0619
     54 H24         0.6581    2.7246   -2.0008 H         1 <0>         0.0660
     55 H25         0.8697    1.3811   -3.2113 H         1 <0>         0.0660
     56 H26        -0.5144    1.4193   -2.1273 H         1 <0>         0.0660
@<TRIPOS>BOND
     1    1   11 1
     2    1   13 1
     3    2   12 1
     4    2   49 1
     5    3   23 1
     6    3   24 1
     7    4   25 1
     8    4   30 1
     9    5    9 1
    10    5   10 2
    11    5   32 1
    12    6   14 1
    13    6   20 1
    14    6   41 1
    15    7    8 2
    16    7    9 1
    17    7   11 2
    18    8   10 ar
    19    8   16 ar
    20    9   15 2
    21   10   18 ar
    22   11   17 1
    23   12   13 1
    24   12   14 1
    25   12   31 1
    26   13   33 1
    27   13   34 1
    28   14   35 1
    29   14   36 1
    30   15   19 1
    31   15   37 1
    32   16   21 ar
    33   16   38 1
    34   17   19 2
    35   17   39 1
    36   18   22 ar
    37   18   40 1
    38   19   42 1
    39   20   23 1
    40   20   43 1
    41   20   44 1
    42   21   22 ar
    43   21   45 1
    44   22   46 1
    45   23   47 1
    46   23   48 1
    47   24   25 ar
    48   24   26 ar
    49   25   27 ar
    50   26   28 ar
    51   26   50 1
    52   27   29 ar
    53   27   51 1
    54   28   29 ar
    55   28   52 1
    56   29   53 1
    57   30   54 1
    58   30   55 1
    59   30   56 1
