@<TRIPOS>MOLECULE
DB01185
   53    56     0     0     0
SMALL
USER_CHARGES

@<TRIPOS>ATOM
      1 F1          0.7528    0.0815    1.6011 F         1 <0>        -0.2380
      2 O1         -4.6370    0.9877   -0.2617 O.3       1 <0>        -0.3883
      3 O2          0.1755    2.1734   -1.2650 O.3       1 <0>        -0.3886
      4 O3          5.9441   -0.4757    1.7365 O.2       1 <0>        -0.2927
      5 C1         -2.2259    0.4830   -0.1987 C.3       1 <0>         0.0021
      6 C2         -1.4964   -0.8291    0.1520 C.3       1 <0>        -0.0270
      7 C3         -0.0536   -0.8849   -0.3757 C.3       1 <0>        -0.0000
      8 C4          0.7620    0.3009    0.2311 C.3       1 <0>         0.1492
      9 C5         -3.6480    0.1814    0.3762 C.3       1 <0>         0.0690
     10 C6         -1.4470    1.6409    0.4576 C.3       1 <0>        -0.0155
     11 C7          2.2876    0.2712   -0.1920 C.3       1 <0>         0.0263
     12 C8          0.0460    1.6736    0.0566 C.3       1 <0>         0.0907
     13 C9         -2.4793   -1.9095   -0.2879 C.3       1 <0>        -0.0467
     14 C10        -3.8675   -1.3128    0.0114 C.3       1 <0>        -0.0235
     15 C11         0.5965   -2.2272   -0.0013 C.3       1 <0>        -0.0432
     16 C12        -2.3469    0.7308   -1.7309 C.3       1 <0>        -0.0566
     17 C13         2.8567   -1.1279    0.0843 C.2       1 <0>        -0.0572
     18 C14         2.0522   -2.2933   -0.4391 C.3       1 <0>        -0.0304
     19 C15         3.0543    1.3341    0.6496 C.3       1 <0>        -0.0339
     20 C16        -3.8130    0.3991    1.8857 C.3       1 <0>        -0.0356
     21 C17         2.5201    0.5631   -1.6930 C.3       1 <0>        -0.0528
     22 C18         4.5627    1.1445    0.6402 C.3       1 <0>         0.0107
     23 C19         4.0205   -1.3572    0.7150 C.2       1 <0>        -0.0194
     24 C20         4.9130   -0.2430    1.1093 C.2       1 <0>         0.1561
     25 H1         -1.4253   -0.9123    1.2472 H         1 <0>         0.0311
     26 H2         -0.0598   -0.8120   -1.4678 H         1 <0>         0.0335
     27 H3         -1.4811    1.5447    1.5491 H         1 <0>         0.0297
     28 H4         -1.9266    2.5950    0.2071 H         1 <0>         0.0297
     29 H5          0.5290    2.4034    0.7169 H         1 <0>         0.0625
     30 H6         -2.3284   -2.8475    0.2562 H         1 <0>         0.0269
     31 H7         -2.3814   -2.1287   -1.3571 H         1 <0>         0.0269
     32 H8         -4.5223   -1.4261   -0.8606 H         1 <0>         0.0293
     33 H9         -4.3431   -1.8605    0.8333 H         1 <0>         0.0293
     34 H10         0.0523   -3.0531   -0.4742 H         1 <0>         0.0272
     35 H11         0.5337   -2.3887    1.0828 H         1 <0>         0.0272
     36 H12        -3.0160    0.0141   -2.2187 H         1 <0>         0.0236
     37 H13        -2.7512    1.7304   -1.9291 H         1 <0>         0.0236
     38 H14        -1.3937    0.6589   -2.2575 H         1 <0>         0.0236
     39 H15         2.1047   -2.2986   -1.5348 H         1 <0>         0.0310
     40 H16         2.4752   -3.2499   -0.1085 H         1 <0>         0.0310
     41 H17         2.7198    1.2928    1.6952 H         1 <0>         0.0279
     42 H18         2.8248    2.3458    0.2937 H         1 <0>         0.0279
     43 H19        -3.1043   -0.1833    2.4806 H         1 <0>         0.0257
     44 H20        -3.7059    1.4576    2.1469 H         1 <0>         0.0257
     45 H21        -4.8254    0.1180    2.2002 H         1 <0>         0.0257
     46 H22         1.8241    0.0166   -2.3366 H         1 <0>         0.0239
     47 H23         2.4216    1.6283   -1.9236 H         1 <0>         0.0239
     48 H24         3.5319    0.2771   -2.0061 H         1 <0>         0.0239
     49 H25        -4.4306    1.9182   -0.0688 H         1 <0>         0.2102
     50 H26         5.0207    1.8689    1.3227 H         1 <0>         0.0345
     51 H27         4.9879    1.2989   -0.3565 H         1 <0>         0.0345
     52 H28        -0.2444    3.0497   -1.2942 H         1 <0>         0.2099
     53 H29         4.3844   -2.3621    0.9009 H         1 <0>         0.0652
@<TRIPOS>BOND
     1    1    8 1
     2    2    9 1
     3    2   49 1
     4    3   12 1
     5    3   52 1
     6    4   24 2
     7    5    6 1
     8    5    9 1
     9    5   10 1
    10    5   16 1
    11    6    7 1
    12    6   13 1
    13    6   25 1
    14    7    8 1
    15    7   15 1
    16    7   26 1
    17    8   11 1
    18    8   12 1
    19    9   14 1
    20    9   20 1
    21   10   12 1
    22   10   27 1
    23   10   28 1
    24   11   17 1
    25   11   19 1
    26   11   21 1
    27   12   29 1
    28   13   14 1
    29   13   30 1
    30   13   31 1
    31   14   32 1
    32   14   33 1
    33   15   18 1
    34   15   34 1
    35   15   35 1
    36   16   36 1
    37   16   37 1
    38   16   38 1
    39   17   18 1
    40   17   23 2
    41   18   39 1
    42   18   40 1
    43   19   22 1
    44   19   41 1
    45   19   42 1
    46   20   43 1
    47   20   44 1
    48   20   45 1
    49   21   46 1
    50   21   47 1
    51   21   48 1
    52   22   24 1
    53   22   50 1
    54   22   51 1
    55   23   24 1
    56   23   53 1
