@<TRIPOS>MOLECULE
DB01222
   65    69     0     0     0
SMALL
USER_CHARGES

@<TRIPOS>ATOM
      1 O1         -2.7843    0.1069   -0.2633 O.3       1 <0>        -0.3342
      2 O2         -3.2913    0.4206    2.0043 O.3       1 <0>        -0.3448
      3 O3          1.6556   -2.4868   -1.2633 O.3       1 <0>        -0.3914
      4 O4         -4.0717   -2.6827    0.8013 O.2       1 <0>        -0.2918
      5 O5         -4.5479   -2.9750   -1.8984 O.3       1 <0>        -0.3874
      6 O6          5.7799    3.1721   -1.4692 O.2       1 <0>        -0.2879
      7 C1         -0.8621   -1.3858    0.1694 C.3       1 <0>         0.0121
      8 C2         -0.2191   -0.2825    1.0402 C.3       1 <0>        -0.0268
      9 C3          1.3132   -0.3546    1.0815 C.3       1 <0>        -0.0310
     10 C4         -2.3585   -1.0701    0.4169 C.3       1 <0>         0.1637
     11 C5          1.8661   -0.1852   -0.3783 C.3       1 <0>         0.0007
     12 C6         -1.0042   -0.3574    2.3518 C.3       1 <0>        -0.0196
     13 C7         -2.4377   -0.7163    1.9059 C.3       1 <0>         0.0984
     14 C8         -0.3634   -1.1798   -1.2733 C.3       1 <0>        -0.0177
     15 C9          1.1765   -1.1556   -1.3902 C.3       1 <0>         0.0600
     16 C10         3.4454   -0.1436   -0.4123 C.3       1 <0>         0.0131
     17 C11         1.8762    0.7305    2.0177 C.3       1 <0>        -0.0458
     18 C12        -0.5486   -2.8235    0.6655 C.3       1 <0>        -0.0561
     19 C13         3.3984    0.7885    1.9906 C.3       1 <0>        -0.0302
     20 C14         3.8906    0.9422    0.5743 C.2       1 <0>        -0.0559
     21 C15        -3.3102   -2.1508   -0.0053 C.2       1 <0>         0.1931
     22 C16        -3.5822    0.8317    0.6706 C.3       1 <0>         0.1610
     23 C17         4.1238   -1.4689    0.0026 C.3       1 <0>        -0.0520
     24 C18         3.9282    0.1630   -1.8221 C.2       1 <0>        -0.0701
     25 C19        -3.3170    2.3164    0.5220 C.3       1 <0>        -0.0018
     26 C20        -3.2751   -2.5414   -1.4675 C.3       1 <0>         0.1053
     27 C21         4.6363    2.0035    0.2291 C.2       1 <0>        -0.0149
     28 C22         4.6695    1.2183   -2.1726 C.2       1 <0>        -0.0180
     29 C23         5.0867    2.2081   -1.1628 C.2       1 <0>         0.1787
     30 C24        -3.6383    2.8087   -0.8896 C.3       1 <0>        -0.0513
     31 C25        -3.3444    4.2920   -1.0469 C.3       1 <0>        -0.0651
     32 H1         -0.4629    0.6978    0.5991 H         1 <0>         0.0311
     33 H2          1.6260   -1.3239    1.4821 H         1 <0>         0.0308
     34 H3          1.5336    0.8173   -0.6997 H         1 <0>         0.0340
     35 H4         -0.5974   -1.1489    2.9913 H         1 <0>         0.0294
     36 H5         -0.9647    0.5863    2.9052 H         1 <0>         0.0294
     37 H6         -2.8311   -1.5053    2.5542 H         1 <0>         0.0630
     38 H7         -0.7408   -0.2281   -1.6676 H         1 <0>         0.0297
     39 H8         -0.7438   -1.9695   -1.9274 H         1 <0>         0.0297
     40 H9          1.4184   -0.8340   -2.4094 H         1 <0>         0.0596
     41 H10         1.5508    0.5427    3.0477 H         1 <0>         0.0271
     42 H11         1.4720    1.7115    1.7339 H         1 <0>         0.0271
     43 H12        -1.0362   -3.0512    1.6194 H         1 <0>         0.0236
     44 H13        -0.8910   -3.5742   -0.0539 H         1 <0>         0.0236
     45 H14         0.5175   -3.0012    0.8196 H         1 <0>         0.0236
     46 H15         3.8198   -0.1195    2.4366 H         1 <0>         0.0310
     47 H16         3.7320    1.6207    2.6227 H         1 <0>         0.0310
     48 H17        -4.6368    0.6080    0.4713 H         1 <0>         0.0910
     49 H18         4.0388   -2.2378   -0.7728 H         1 <0>         0.0241
     50 H19         5.1988   -1.3261    0.1750 H         1 <0>         0.0241
     51 H20         3.7046   -1.8888    0.9216 H         1 <0>         0.0241
     52 H21         3.6733   -0.5468   -2.6062 H         1 <0>         0.0582
     53 H22         1.2480   -3.0195   -1.9672 H         1 <0>         0.2098
     54 H23        -2.2622    2.5228    0.7446 H         1 <0>         0.0314
     55 H24        -3.9016    2.8734    1.2641 H         1 <0>         0.0314
     56 H25        -2.5672   -3.3598   -1.6117 H         1 <0>         0.0637
     57 H26        -2.9957   -1.6928   -2.0954 H         1 <0>         0.0637
     58 H27         4.9249    2.7590    0.9523 H         1 <0>         0.0655
     59 H28         4.9901    1.3671   -3.1972 H         1 <0>         0.0653
     60 H29        -4.6954    2.6252   -1.1144 H         1 <0>         0.0264
     61 H30        -3.0489    2.2567   -1.6306 H         1 <0>         0.0264
     62 H31        -5.1509   -2.2141   -1.8436 H         1 <0>         0.2100
     63 H32        -3.9402    4.8860   -0.3465 H         1 <0>         0.0230
     64 H33        -2.2862    4.5036   -0.8635 H         1 <0>         0.0230
     65 H34        -3.5858    4.6210   -2.0624 H         1 <0>         0.0230
@<TRIPOS>BOND
     1    1   10 1
     2    1   22 1
     3    2   13 1
     4    2   22 1
     5    3   15 1
     6    3   53 1
     7    4   21 2
     8    5   26 1
     9    5   62 1
    10    6   29 2
    11    7    8 1
    12    7   10 1
    13    7   14 1
    14    7   18 1
    15    8    9 1
    16    8   12 1
    17    8   32 1
    18    9   11 1
    19    9   17 1
    20    9   33 1
    21   10   13 1
    22   10   21 1
    23   11   15 1
    24   11   16 1
    25   11   34 1
    26   12   13 1
    27   12   35 1
    28   12   36 1
    29   13   37 1
    30   14   15 1
    31   14   38 1
    32   14   39 1
    33   15   40 1
    34   16   20 1
    35   16   23 1
    36   16   24 1
    37   17   19 1
    38   17   41 1
    39   17   42 1
    40   18   43 1
    41   18   44 1
    42   18   45 1
    43   19   20 1
    44   19   46 1
    45   19   47 1
    46   20   27 2
    47   21   26 1
    48   22   25 1
    49   22   48 1
    50   23   49 1
    51   23   50 1
    52   23   51 1
    53   24   28 2
    54   24   52 1
    55   25   30 1
    56   25   54 1
    57   25   55 1
    58   26   56 1
    59   26   57 1
    60   27   29 1
    61   27   58 1
    62   28   29 1
    63   28   59 1
    64   30   31 1
    65   30   60 1
    66   30   61 1
    67   31   63 1
    68   31   64 1
    69   31   65 1
