@<TRIPOS>MOLECULE
DB01137
   46    49     0     0     0
SMALL
USER_CHARGES

@<TRIPOS>ATOM
      1 F1          0.8320    3.2448   -0.2387 F         1 <0>        -0.2034
      2 O1         -0.2040   -1.3444    0.2665 O.3       1 <0>        -0.4859
      3 O2         -4.2174    3.1345   -0.0364 O.2       1 <0>        -0.2865
      4 O3         -6.6877    2.2733    0.0763 O.co2     1 <0>        -0.5445
      5 O4         -7.0126    0.0142    0.2322 O.co2     1 <0>        -0.5445
      6 N1          4.4708    0.1688    0.0385 N.4       1 <0>         0.2353
      7 N2          1.6670    0.6262   -0.0132 N.pl3     1 <0>        -0.3147
      8 N3         -3.0143   -0.7473    0.2187 N.pl3     1 <0>        -0.3369
      9 C1          3.7141    0.0785   -1.2617 C.3       1 <0>        -0.0160
     10 C2          3.6112   -0.2772    1.1940 C.3       1 <0>        -0.0160
     11 C3          2.4759    0.9629   -1.1889 C.3       1 <0>         0.0527
     12 C4          2.3764    0.6103    1.2729 C.3       1 <0>         0.0527
     13 C5          0.3038    0.9433    0.0020 C.ar      1 <0>         0.1100
     14 C6         -0.6615   -0.0551    0.1435 C.ar      1 <0>         0.1684
     15 C7         -2.0293    0.2573    0.1335 C.ar      1 <0>         0.0974
     16 C8         -2.5295   -2.1301    0.1993 C.3       1 <0>         0.0658
     17 C9          5.7706   -0.5836   -0.0159 C.3       1 <0>        -0.0430
     18 C10        -1.1679   -2.1970    0.8928 C.3       1 <0>         0.1101
     19 C11        -2.4046    1.6105    0.0282 C.ar      1 <0>         0.0522
     20 C12        -0.0870    2.2763   -0.1135 C.ar      1 <0>         0.1487
     21 C13        -1.4395    2.6155   -0.0938 C.ar      1 <0>        -0.0116
     22 C14        -4.3492   -0.3973    0.2169 C.2       1 <0>         0.0182
     23 C15        -2.4679   -2.6451   -1.2411 C.3       1 <0>        -0.0410
     24 C16        -3.8479    1.9697    0.0384 C.2       1 <0>         0.1984
     25 C17        -4.8214    0.8510    0.1412 C.2       1 <0>         0.0607
     26 C18        -6.3169    1.0669    0.1509 C.2       1 <0>         0.0767
     27 H1          4.7103    1.1581    0.1918 H         1 <0>         0.2032
     28 H2          3.4525   -0.9743   -1.4193 H         1 <0>         0.0830
     29 H3          4.3832    0.4141   -2.0608 H         1 <0>         0.0830
     30 H4          4.2093   -0.1905    2.1069 H         1 <0>         0.0830
     31 H5          3.3478   -1.3275    1.0246 H         1 <0>         0.0830
     32 H6          2.7747    2.0175   -1.1475 H         1 <0>         0.0516
     33 H7          1.8919    0.8210   -2.1065 H         1 <0>         0.0516
     34 H8          1.7255    0.2281    2.0689 H         1 <0>         0.0516
     35 H9          2.6595    1.6345    1.5465 H         1 <0>         0.0516
     36 H10        -3.2224   -2.7701    0.7610 H         1 <0>         0.0559
     37 H11         6.2908   -0.4293    0.9331 H         1 <0>         0.0778
     38 H12         5.5555   -1.6432   -0.1778 H         1 <0>         0.0778
     39 H13         6.3647   -0.1738   -0.8368 H         1 <0>         0.0778
     40 H14        -1.2476   -1.9217    1.9530 H         1 <0>         0.0717
     41 H15        -0.7738   -3.2185    0.8562 H         1 <0>         0.0717
     42 H16        -1.7204    3.6612   -0.1803 H         1 <0>         0.0654
     43 H17        -4.9908   -1.2692    0.2811 H         1 <0>         0.0817
     44 H18        -1.8076   -2.0376   -1.8691 H         1 <0>         0.0251
     45 H19        -2.1041   -3.6775   -1.2665 H         1 <0>         0.0251
     46 H20        -3.4621   -2.6285   -1.7014 H         1 <0>         0.0251
@<TRIPOS>BOND
     1    1   20 1
     2    2   14 1
     3    2   18 1
     4    3   24 2
     5    4   26 2
     6    5   26 1
     7    6    9 1
     8    6   10 1
     9    6   17 1
    10    6   27 1
    11    7   11 1
    12    7   12 1
    13    7   13 1
    14    8   15 1
    15    8   16 1
    16    8   22 2
    17    9   11 1
    18    9   28 1
    19    9   29 1
    20   10   12 1
    21   10   30 1
    22   10   31 1
    23   11   32 1
    24   11   33 1
    25   12   34 1
    26   12   35 1
    27   13   14 ar
    28   13   20 ar
    29   14   15 ar
    30   15   19 ar
    31   16   18 1
    32   16   23 1
    33   16   36 1
    34   17   37 1
    35   17   38 1
    36   17   39 1
    37   18   40 1
    38   18   41 1
    39   19   21 ar
    40   19   24 1
    41   20   21 ar
    42   21   42 1
    43   22   25 1
    44   22   43 1
    45   23   44 1
    46   23   45 1
    47   23   46 1
    48   24   25 1
    49   25   26 1
