@<TRIPOS>MOLECULE
DB01151
   42    44     0     0     0
SMALL
USER_CHARGES

@<TRIPOS>ATOM
      1 N1         -0.3534    0.0157    0.4418 N.pl3     1 <0>        -0.2996
      2 N2          3.9391   -0.3071   -0.3777 N.3       1 <0>        -0.3189
      3 C1         -2.2779   -0.9463   -1.5146 C.3       1 <0>        -0.0219
      4 C2         -3.1659    0.1085   -0.8751 C.3       1 <0>        -0.0219
      5 C3         -0.7785   -1.3377    0.4734 C.ar      1 <0>         0.0372
      6 C4         -1.1573    1.1881    0.3960 C.ar      1 <0>         0.0372
      7 C5          1.0953    0.1886    0.6341 C.3       1 <0>         0.0184
      8 C6         -1.7053   -1.8418   -0.4542 C.ar      1 <0>        -0.0257
      9 C7         -2.4550    1.2433   -0.1684 C.ar      1 <0>        -0.0257
     10 C8          1.7360    0.8042   -0.6094 C.3       1 <0>        -0.0243
     11 C9         -0.2687   -2.2299    1.4418 C.ar      1 <0>        -0.0401
     12 C10        -0.6747    2.3860    0.9889 C.ar      1 <0>        -0.0401
     13 C11        -2.0972   -3.1916   -0.4051 C.ar      1 <0>        -0.0568
     14 C12        -3.2043    2.4439   -0.0899 C.ar      1 <0>        -0.0568
     15 C13         3.2564    0.9724   -0.5262 C.3       1 <0>        -0.0030
     16 C14        -0.6638   -3.5681    1.4860 C.ar      1 <0>        -0.0600
     17 C15        -1.4215    3.5657    1.0373 C.ar      1 <0>        -0.0600
     18 C16        -1.5788   -4.0499    0.5602 C.ar      1 <0>        -0.0614
     19 C17        -2.6940    3.5937    0.5003 C.ar      1 <0>        -0.0614
     20 C18         5.3839   -0.1265   -0.3648 C.3       1 <0>        -0.0158
     21 H1         -1.4716   -0.4993   -2.1094 H         1 <0>         0.0317
     22 H2         -2.8807   -1.5389   -2.2142 H         1 <0>         0.0317
     23 H3         -3.8690   -0.3513   -0.1680 H         1 <0>         0.0317
     24 H4         -3.7682    0.5385   -1.6873 H         1 <0>         0.0317
     25 H5          1.3371    0.7392    1.5497 H         1 <0>         0.0468
     26 H6          1.6006   -0.7750    0.7699 H         1 <0>         0.0468
     27 H7          1.3079    1.7916   -0.8160 H         1 <0>         0.0293
     28 H8          1.4911    0.1872   -1.4848 H         1 <0>         0.0293
     29 H9          0.4221   -1.8852    2.2091 H         1 <0>         0.0636
     30 H10         0.3012    2.4434    1.4617 H         1 <0>         0.0636
     31 H11         3.4946    1.6264    0.3213 H         1 <0>         0.0424
     32 H12         3.5961    1.4760   -1.4398 H         1 <0>         0.0424
     33 H13        -2.8141   -3.5822   -1.1235 H         1 <0>         0.0621
     34 H14        -4.2088    2.4850   -0.5084 H         1 <0>         0.0621
     35 H15        -0.2609   -4.2282    2.2484 H         1 <0>         0.0618
     36 H16        -1.0064    4.4527    1.5067 H         1 <0>         0.0618
     37 H17        -1.8908   -5.0894    0.5901 H         1 <0>         0.0618
     38 H18        -3.2887    4.5007    0.5390 H         1 <0>         0.0618
     39 H19         3.6826   -0.9232   -1.1486 H         1 <0>         0.1216
     40 H20         5.7434    0.3113   -1.3017 H         1 <0>         0.0388
     41 H21         5.8710   -1.0985   -0.2396 H         1 <0>         0.0388
     42 H22         5.6968    0.5079    0.4710 H         1 <0>         0.0388
@<TRIPOS>BOND
     1    1    5 1
     2    1    6 1
     3    1    7 1
     4    2   15 1
     5    2   20 1
     6    2   39 1
     7    3    4 1
     8    3    8 1
     9    3   21 1
    10    3   22 1
    11    4    9 1
    12    4   23 1
    13    4   24 1
    14    5    8 ar
    15    5   11 ar
    16    6    9 ar
    17    6   12 ar
    18    7   10 1
    19    7   25 1
    20    7   26 1
    21    8   13 ar
    22    9   14 ar
    23   10   15 1
    24   10   27 1
    25   10   28 1
    26   11   16 ar
    27   11   29 1
    28   12   17 ar
    29   12   30 1
    30   13   18 ar
    31   13   33 1
    32   14   19 ar
    33   14   34 1
    34   15   31 1
    35   15   32 1
    36   16   18 ar
    37   16   35 1
    38   17   19 ar
    39   17   36 1
    40   18   37 1
    41   19   38 1
    42   20   40 1
    43   20   41 1
    44   20   42 1
