@<TRIPOS>MOLECULE
DB01224
   52    55     0     0     0
SMALL
USER_CHARGES

@<TRIPOS>ATOM
      1 S1         -4.8221    0.6289   -1.7149 S.3       1 <0>        -0.0843
      2 O1          5.5692    0.0087    0.3143 O.3       1 <0>        -0.3763
      3 O2          8.2911    0.6121    0.0767 O.3       1 <0>        -0.3927
      4 N1          2.0559    0.3079   -0.7586 N.3       1 <0>        -0.2931
      5 N2         -0.7571   -0.1280   -0.7481 N.pl3     1 <0>        -0.2176
      6 N3         -2.6790   -1.3659   -0.5598 N.2       1 <0>        -0.0404
      7 C1          1.4750   -0.8089    0.0010 C.3       1 <0>         0.0352
      8 C2          1.1231    1.4437   -0.7906 C.3       1 <0>         0.0352
      9 C3          0.1532   -1.2627   -0.6207 C.3       1 <0>         0.0933
     10 C4         -0.2068    1.0404   -1.4298 C.3       1 <0>         0.0933
     11 C5          3.3368    0.7112   -0.1801 C.3       1 <0>         0.0226
     12 C6         -2.0668   -0.2184   -0.4229 C.2       1 <0>         0.3223
     13 C7          4.3372   -0.4320   -0.2413 C.3       1 <0>         0.0605
     14 C8         -2.7048    1.0407    0.0686 C.ar      1 <0>         0.0793
     15 C9         -3.8991    1.5321   -0.4813 C.ar      1 <0>         0.0277
     16 C10        -2.0376    1.7721    1.0611 C.ar      1 <0>        -0.0458
     17 C11        -4.0269   -1.5968   -0.2335 C.ar      1 <0>         0.1900
     18 C12        -5.1004   -0.8425   -0.7395 C.ar      1 <0>         0.0634
     19 C13        -4.4073    2.7581   -0.0316 C.ar      1 <0>        -0.0472
     20 C14         6.5510   -1.0184    0.2865 C.3       1 <0>         0.0708
     21 C15        -2.5580    2.9866    1.5055 C.ar      1 <0>        -0.0609
     22 C16        -3.7391    3.4807    0.9577 C.ar      1 <0>        -0.0607
     23 C17        -4.3118   -2.7168    0.5621 C.ar      1 <0>        -0.0097
     24 C18        -6.4212   -1.2065   -0.4409 C.ar      1 <0>        -0.0438
     25 C19         7.8448   -0.4821    0.8683 C.3       1 <0>         0.0676
     26 C20        -5.6274   -3.0713    0.8631 C.ar      1 <0>        -0.0576
     27 C21        -6.6818   -2.3172    0.3593 C.ar      1 <0>        -0.0604
     28 H1          2.1148   -1.6949   -0.0105 H         1 <0>         0.0463
     29 H2          1.3127   -0.5243    1.0493 H         1 <0>         0.0463
     30 H3          0.9508    1.8312    0.2217 H         1 <0>         0.0463
     31 H4          1.5531    2.2603   -1.3832 H         1 <0>         0.0463
     32 H5          0.3245   -1.7026   -1.6109 H         1 <0>         0.0739
     33 H6         -0.2740   -2.0478    0.0149 H         1 <0>         0.0739
     34 H7         -0.8777    1.9049   -1.4447 H         1 <0>         0.0739
     35 H8         -0.0418    0.7781   -2.4833 H         1 <0>         0.0739
     36 H9          3.2264    1.0552    0.8572 H         1 <0>         0.0449
     37 H10         3.7527    1.5606   -0.7375 H         1 <0>         0.0449
     38 H11         4.4945   -0.7474   -1.2800 H         1 <0>         0.0572
     39 H12         4.0187   -1.2942    0.3497 H         1 <0>         0.0572
     40 H13        -1.1182    1.4028    1.5081 H         1 <0>         0.0626
     41 H14        -5.3319    3.1619   -0.4378 H         1 <0>         0.0629
     42 H15         6.2092   -1.8768    0.8750 H         1 <0>         0.0583
     43 H16         6.7110   -1.3319   -0.7516 H         1 <0>         0.0583
     44 H17        -2.0410    3.5485    2.2780 H         1 <0>         0.0618
     45 H18        -4.1431    4.4279    1.3032 H         1 <0>         0.0618
     46 H19        -3.5004   -3.3297    0.9492 H         1 <0>         0.0661
     47 H20        -7.2595   -0.6256   -0.8187 H         1 <0>         0.0630
     48 H21         8.6244   -1.2491    0.8859 H         1 <0>         0.0580
     49 H22         7.6887   -0.1082    1.8845 H         1 <0>         0.0580
     50 H23        -5.8271   -3.9402    1.4833 H         1 <0>         0.0619
     51 H24        -7.7066   -2.5925    0.5900 H         1 <0>         0.0618
     52 H25         8.4496    0.2781   -0.8226 H         1 <0>         0.2095
@<TRIPOS>BOND
     1    1   15 1
     2    1   18 1
     3    2   13 1
     4    2   20 1
     5    3   25 1
     6    3   52 1
     7    4    7 1
     8    4    8 1
     9    4   11 1
    10    5    9 1
    11    5   10 1
    12    5   12 1
    13    6   12 2
    14    6   17 1
    15    7    9 1
    16    7   28 1
    17    7   29 1
    18    8   10 1
    19    8   30 1
    20    8   31 1
    21    9   32 1
    22    9   33 1
    23   10   34 1
    24   10   35 1
    25   11   13 1
    26   11   36 1
    27   11   37 1
    28   12   14 1
    29   13   38 1
    30   13   39 1
    31   14   15 ar
    32   14   16 ar
    33   15   19 ar
    34   16   21 ar
    35   16   40 1
    36   17   18 ar
    37   17   23 ar
    38   18   24 ar
    39   19   22 ar
    40   19   41 1
    41   20   25 1
    42   20   42 1
    43   20   43 1
    44   21   22 ar
    45   21   44 1
    46   22   45 1
    47   23   26 ar
    48   23   46 1
    49   24   27 ar
    50   24   47 1
    51   25   48 1
    52   25   49 1
    53   26   27 ar
    54   26   50 1
    55   27   51 1
