@<TRIPOS>MOLECULE
DB01365
   29    29     0     0     0
SMALL
USER_CHARGES

@<TRIPOS>ATOM
      1 N1         -2.6678    0.4471   -0.2272 N.3       1 <0>        -0.3137
      2 C1         -1.2866    0.4265    0.2855 C.3       1 <0>         0.0172
      3 C2         -0.3515    0.0311   -0.8877 C.3       1 <0>        -0.0099
      4 C3         -1.2443   -0.5917    1.4332 C.3       1 <0>        -0.0467
      5 C4         -0.9831    1.8309    0.8249 C.3       1 <0>        -0.0467
      6 C5          1.1182   -0.0983   -0.5592 C.ar      1 <0>        -0.0456
      7 C6         -3.0493   -0.8701   -0.7004 C.3       1 <0>        -0.0153
      8 C7          1.9387    1.0115   -0.6760 C.ar      1 <0>        -0.0585
      9 C8          1.6151   -1.3238   -0.1474 C.ar      1 <0>        -0.0585
     10 C9          3.2949    0.8923   -0.3726 C.ar      1 <0>        -0.0615
     11 C10         2.9714   -1.4429    0.1560 C.ar      1 <0>        -0.0615
     12 C11         3.8112   -0.3347    0.0434 C.ar      1 <0>        -0.0617
     13 H1         -0.6235   -0.9348   -1.3268 H         1 <0>         0.0331
     14 H2         -0.4616    0.7538   -1.7096 H         1 <0>         0.0331
     15 H3         -0.3387   -0.4503    2.0362 H         1 <0>         0.0247
     16 H4         -2.0902   -0.4669    2.1207 H         1 <0>         0.0247
     17 H5         -1.2225   -1.6328    1.0956 H         1 <0>         0.0247
     18 H6         -0.0025    1.8740    1.3107 H         1 <0>         0.0247
     19 H7         -1.7230    2.1367    1.5747 H         1 <0>         0.0247
     20 H8         -0.9949    2.5794    0.0241 H         1 <0>         0.0247
     21 H9         -2.7480    1.1203   -0.9889 H         1 <0>         0.1221
     22 H10        -2.5575   -1.1805   -1.6254 H         1 <0>         0.0388
     23 H11        -4.1131   -0.8133   -0.9649 H         1 <0>         0.0388
     24 H12        -3.0013   -1.6687    0.0431 H         1 <0>         0.0388
     25 H13         1.5474    1.9711   -1.0011 H         1 <0>         0.0620
     26 H14         0.9727   -2.1949   -0.0592 H         1 <0>         0.0620
     27 H15         3.9489    1.7549   -0.4607 H         1 <0>         0.0618
     28 H16         3.3737   -2.3985    0.4793 H         1 <0>         0.0618
     29 H17         4.8673   -0.4276    0.2795 H         1 <0>         0.0618
@<TRIPOS>BOND
     1    1    2 1
     2    1    7 1
     3    1   21 1
     4    2    3 1
     5    2    4 1
     6    2    5 1
     7    3    6 1
     8    3   13 1
     9    3   14 1
    10    4   15 1
    11    4   16 1
    12    4   17 1
    13    5   18 1
    14    5   19 1
    15    5   20 1
    16    6    8 ar
    17    6    9 ar
    18    7   22 1
    19    7   23 1
    20    7   24 1
    21    8   10 ar
    22    8   25 1
    23    9   11 ar
    24    9   26 1
    25   10   12 ar
    26   10   27 1
    27   11   12 ar
    28   11   28 1
    29   12   29 1
