@<TRIPOS>MOLECULE
DB01138
   49    52     0     0     0
SMALL
USER_CHARGES

@<TRIPOS>ATOM
      1 S1          3.5864   -1.9085    0.9189 S.o       1 <0>         0.0538
      2 O1         -1.1408   -3.3030    0.3159 O.2       1 <0>        -0.2729
      3 O2         -0.0487    0.1171    3.3762 O.2       1 <0>        -0.2729
      4 O3          4.2280   -1.3736    2.1620 O.2       1 <0>        -0.2521
      5 N1         -1.6924   -0.9921    0.4780 N.am      1 <0>        -0.1804
      6 N2         -1.2747    0.0540    1.3363 N.am      1 <0>        -0.1804
      7 C1         -0.3641   -1.9329    2.1434 C.3       1 <0>         0.1164
      8 C2          1.1053   -2.3023    2.0510 C.3       1 <0>        -0.0216
      9 C3         -1.0756   -2.1997    0.8377 C.2       1 <0>         0.2487
     10 C4         -0.5482   -0.4597    2.4216 C.2       1 <0>         0.2487
     11 C5          1.8234   -1.4676    0.9988 C.3       1 <0>         0.0291
     12 C6         -2.8611   -0.9419   -0.3409 C.ar      1 <0>         0.0566
     13 C7         -1.2012    1.4275    0.9520 C.ar      1 <0>         0.0566
     14 C8         -3.0874   -1.9315   -1.3001 C.ar      1 <0>        -0.0386
     15 C9         -0.9515    2.4117    1.9111 C.ar      1 <0>        -0.0386
     16 C10        -3.7823    0.0962   -0.1852 C.ar      1 <0>        -0.0386
     17 C11        -1.3781    1.7922   -0.3848 C.ar      1 <0>        -0.0386
     18 C12         4.0330   -0.7768   -0.4127 C.ar      1 <0>         0.0388
     19 C13        -4.2291   -1.8830   -2.1000 C.ar      1 <0>        -0.0599
     20 C14        -0.8792    3.7531    1.5358 C.ar      1 <0>        -0.0599
     21 C15        -4.9241    0.1445   -0.9850 C.ar      1 <0>        -0.0599
     22 C16        -1.3057    3.1338   -0.7600 C.ar      1 <0>        -0.0599
     23 C17        -5.1475   -0.8451   -1.9423 C.ar      1 <0>        -0.0616
     24 C18        -1.0561    4.1142    0.2003 C.ar      1 <0>        -0.0616
     25 C19         4.4544    0.5117   -0.1070 C.ar      1 <0>        -0.0459
     26 C20         3.9519   -1.2034   -1.7329 C.ar      1 <0>        -0.0459
     27 C21         4.7996    1.3869   -1.1369 C.ar      1 <0>        -0.0606
     28 C22         4.2972   -0.3281   -2.7626 C.ar      1 <0>        -0.0606
     29 C23         4.7211    0.9670   -2.4645 C.ar      1 <0>        -0.0617
     30 H1         -0.8689   -2.4988    2.9341 H         1 <0>         0.0491
     31 H2          1.2089   -3.3686    1.8133 H         1 <0>         0.0286
     32 H3          1.5810   -2.1521    3.0286 H         1 <0>         0.0286
     33 H4          1.7674   -0.3977    1.2213 H         1 <0>         0.0405
     34 H5          1.3996   -1.6419    0.0048 H         1 <0>         0.0405
     35 H6         -2.3848   -2.7320   -1.4993 H         1 <0>         0.0637
     36 H7         -0.8564    2.1953    2.9686 H         1 <0>         0.0637
     37 H8         -3.7017    0.8446    0.5960 H         1 <0>         0.0637
     38 H9         -1.4892    1.0689   -1.1854 H         1 <0>         0.0637
     39 H10        -4.3986   -2.6474   -2.8528 H         1 <0>         0.0618
     40 H11        -0.6955    4.5182    2.2844 H         1 <0>         0.0618
     41 H12        -5.6486    0.9425   -0.8507 H         1 <0>         0.0618
     42 H13        -1.4248    3.4140   -1.8027 H         1 <0>         0.0618
     43 H14        -6.0372   -0.8083   -2.5640 H         1 <0>         0.0618
     44 H15        -0.9980    5.1584   -0.0923 H         1 <0>         0.0618
     45 H16         4.5181    0.8636    0.9188 H         1 <0>         0.0629
     46 H17         3.6227   -2.2093   -1.9788 H         1 <0>         0.0629
     47 H18         5.1279    2.3959   -0.9051 H         1 <0>         0.0618
     48 H19         4.2357   -0.6548   -3.7966 H         1 <0>         0.0618
     49 H20         4.9893    1.6487   -3.2664 H         1 <0>         0.0618
@<TRIPOS>BOND
     1    1    4 2
     2    1   11 1
     3    1   18 1
     4    2    9 2
     5    3   10 2
     6    5    6 1
     7    5    9 am
     8    5   12 1
     9    6   10 am
    10    6   13 1
    11    7    8 1
    12    7    9 1
    13    7   10 1
    14    7   30 1
    15    8   11 1
    16    8   31 1
    17    8   32 1
    18   11   33 1
    19   11   34 1
    20   12   14 ar
    21   12   16 ar
    22   13   15 ar
    23   13   17 ar
    24   14   19 ar
    25   14   35 1
    26   15   20 ar
    27   15   36 1
    28   16   21 ar
    29   16   37 1
    30   17   22 ar
    31   17   38 1
    32   18   25 ar
    33   18   26 ar
    34   19   23 ar
    35   19   39 1
    36   20   24 ar
    37   20   40 1
    38   21   23 ar
    39   21   41 1
    40   22   24 ar
    41   22   42 1
    42   23   43 1
    43   24   44 1
    44   25   27 ar
    45   25   45 1
    46   26   28 ar
    47   26   46 1
    48   27   29 ar
    49   27   47 1
    50   28   29 ar
    51   28   48 1
    52   29   49 1
