@<TRIPOS>MOLECULE
DB01395
   57    63     0     0     0
SMALL
USER_CHARGES

@<TRIPOS>ATOM
      1 O1          4.2233   -0.7139   -0.9714 O.3       1 <0>        -0.4572
      2 O2          6.4037   -1.4238   -0.9959 O.2       1 <0>        -0.2508
      3 O3         -6.7299   -0.2661    0.7293 O.2       1 <0>        -0.2927
      4 C1          1.0988    0.7136    0.3408 C.3       1 <0>        -0.0254
      5 C2          2.0163    1.8946    0.1952 C.3       1 <0>        -0.0305
      6 C3          3.3997    1.3316    0.0451 C.3       1 <0>         0.0029
      7 C4          1.8087   -0.5006   -0.3325 C.3       1 <0>         0.0115
      8 C5         -0.3669    0.8453   -0.0694 C.3       1 <0>        -0.0303
      9 C6          3.3123   -0.2027    0.0139 C.3       1 <0>         0.1226
     10 C7          2.8358    2.2544   -1.0087 C.3       1 <0>        -0.0428
     11 C8         -1.0360    2.0405    0.5630 C.3       1 <0>        -0.0306
     12 C9         -1.1270   -0.4519    0.3737 C.3       1 <0>        -0.0285
     13 C10        -2.5166    2.0172    0.8345 C.3       1 <0>        -0.0156
     14 C11         1.1368   -1.7373    0.3003 C.3       1 <0>        -0.0434
     15 C12        -1.9722    2.8988   -0.2514 C.3       1 <0>        -0.0426
     16 C13        -2.6387   -0.4159   -0.0800 C.3       1 <0>        -0.0069
     17 C14        -0.3777   -1.7644    0.0026 C.3       1 <0>        -0.0485
     18 C15         3.8260   -0.8095    1.3151 C.3       1 <0>        -0.0020
     19 C16        -3.3377    0.8309    0.5013 C.2       1 <0>        -0.0567
     20 C17         1.6467   -0.6508   -1.8735 C.3       1 <0>        -0.0556
     21 C18        -3.3710   -1.6773    0.4582 C.3       1 <0>        -0.0366
     22 C19         5.3235   -0.8616    1.0967 C.3       1 <0>         0.0486
     23 C20        -2.7676   -0.3882   -1.6239 C.3       1 <0>        -0.0555
     24 C21         5.4131   -1.0507   -0.3871 C.2       1 <0>         0.3078
     25 C22        -4.6539    0.8250    0.7907 C.2       1 <0>        -0.0192
     26 C23        -4.8715   -1.6687    0.1903 C.3       1 <0>         0.0107
     27 C24        -5.5118   -0.3645    0.5882 C.2       1 <0>         0.1561
     28 H1          1.0950    0.5372    1.4303 H         1 <0>         0.0313
     29 H2          1.8603    2.6586    0.9461 H         1 <0>         0.0308
     30 H3          4.1932    1.7255    0.6665 H         1 <0>         0.0342
     31 H4         -0.4068    0.9782   -1.1533 H         1 <0>         0.0309
     32 H5          2.5289    1.9080   -1.9791 H         1 <0>         0.0272
     33 H6          3.2404    3.2617   -1.0470 H         1 <0>         0.0272
     34 H7         -0.4347    2.5286    1.3209 H         1 <0>         0.0310
     35 H8         -1.1364   -0.4395    1.4767 H         1 <0>         0.0312
     36 H9         -2.8235    2.5157    1.7515 H         1 <0>         0.0349
     37 H10         1.2611   -1.7376    1.3903 H         1 <0>         0.0272
     38 H11         1.5998   -2.6615   -0.0662 H         1 <0>         0.0272
     39 H12        -2.1583    2.6391   -1.2855 H         1 <0>         0.0274
     40 H13        -1.9545    3.9674   -0.0697 H         1 <0>         0.0274
     41 H14        -0.5351   -2.0106   -1.0517 H         1 <0>         0.0268
     42 H15        -0.8025   -2.5996    0.5717 H         1 <0>         0.0268
     43 H16         3.4822   -1.8423    1.4379 H         1 <0>         0.0309
     44 H17         3.5488   -0.2478    2.2120 H         1 <0>         0.0309
     45 H18         1.9680   -1.6531   -2.1854 H         1 <0>         0.0236
     46 H19         0.6180   -0.5298   -2.2195 H         1 <0>         0.0236
     47 H20         2.2565    0.0385   -2.4556 H         1 <0>         0.0236
     48 H21        -3.2080   -1.7569    1.5422 H         1 <0>         0.0278
     49 H22        -2.9592   -2.5898    0.0118 H         1 <0>         0.0278
     50 H23         5.7752   -1.7031    1.6274 H         1 <0>         0.0379
     51 H24         5.8151    0.0749    1.3731 H         1 <0>         0.0379
     52 H25        -2.4002   -1.3168   -2.0723 H         1 <0>         0.0238
     53 H26        -3.8083   -0.2681   -1.9458 H         1 <0>         0.0238
     54 H27        -2.2182    0.4373   -2.0821 H         1 <0>         0.0238
     55 H28        -5.1387    1.7016    1.2100 H         1 <0>         0.0652
     56 H29        -5.3405   -2.4728    0.7685 H         1 <0>         0.0345
     57 H30        -5.0841   -1.8473   -0.8685 H         1 <0>         0.0345
@<TRIPOS>BOND
     1    1    9 1
     2    1   24 1
     3    2   24 2
     4    3   27 2
     5    4    5 1
     6    4    7 1
     7    4    8 1
     8    4   28 1
     9    5    6 1
    10    5   10 1
    11    5   29 1
    12    6    9 1
    13    6   10 1
    14    6   30 1
    15    7    9 1
    16    7   14 1
    17    7   20 1
    18    8   11 1
    19    8   12 1
    20    8   31 1
    21    9   18 1
    22   10   32 1
    23   10   33 1
    24   11   13 1
    25   11   15 1
    26   11   34 1
    27   12   16 1
    28   12   17 1
    29   12   35 1
    30   13   15 1
    31   13   19 1
    32   13   36 1
    33   14   17 1
    34   14   37 1
    35   14   38 1
    36   15   39 1
    37   15   40 1
    38   16   19 1
    39   16   21 1
    40   16   23 1
    41   17   41 1
    42   17   42 1
    43   18   22 1
    44   18   43 1
    45   18   44 1
    46   19   25 2
    47   20   45 1
    48   20   46 1
    49   20   47 1
    50   21   26 1
    51   21   48 1
    52   21   49 1
    53   22   24 1
    54   22   50 1
    55   22   51 1
    56   23   52 1
    57   23   53 1
    58   23   54 1
    59   25   27 1
    60   25   55 1
    61   26   27 1
    62   26   56 1
    63   26   57 1
