@<TRIPOS>MOLECULE
DB01132
   45    47     0     0     0
SMALL
USER_CHARGES

@<TRIPOS>ATOM
      1 S1         -5.8604    0.9677    0.1412 S.3       1 <0>        -0.0542
      2 O1          0.7225    1.9484   -1.1023 O.3       1 <0>        -0.4916
      3 O2         -5.9371   -2.8456   -0.4488 O.2       1 <0>        -0.2741
      4 O3         -8.4169    0.8629    0.7459 O.2       1 <0>        -0.2625
      5 N1         -7.3436   -1.1119    0.1552 N.am      1 <0>        -0.2463
      6 N2          3.6104    0.8660   -1.3415 N.ar      1 <0>        -0.2595
      7 C1         -5.0686   -0.5914   -0.3596 C.3       1 <0>         0.0945
      8 C2         -3.8704   -0.8975    0.5214 C.3       1 <0>        -0.0069
      9 C3         -2.6437   -0.1371    0.0874 C.ar      1 <0>        -0.0456
     10 C4         -6.1355   -1.6552   -0.2305 C.2       1 <0>         0.2336
     11 C5         -2.3949    1.1176    0.6235 C.ar      1 <0>        -0.0551
     12 C6         -1.7829   -0.7045   -0.8403 C.ar      1 <0>        -0.0551
     13 C7          2.8062    2.9462   -0.3991 C.3       1 <0>         0.0239
     14 C8         -0.3853    1.2622   -0.7098 C.ar      1 <0>         0.1205
     15 C9          1.3056    2.8387   -0.1519 C.3       1 <0>         0.0950
     16 C10        -1.2593    1.8212    0.2225 C.ar      1 <0>        -0.0197
     17 C11        -0.6472   -0.0008   -1.2412 C.ar      1 <0>        -0.0197
     18 C12         3.5115    1.6220   -0.2341 C.ar      1 <0>         0.0445
     19 C13        -7.4287    0.2337    0.3984 C.2       1 <0>         0.2789
     20 C14         4.7696   -0.7677    0.0119 C.ar      1 <0>        -0.0295
     21 C15         3.9963    1.2798    1.0090 C.ar      1 <0>        -0.0400
     22 C16         5.4539   -2.0851    0.1053 C.3       1 <0>        -0.0291
     23 C17         4.6401    0.0530    1.1268 C.ar      1 <0>        -0.0555
     24 C18         4.2423   -0.3194   -1.1883 C.ar      1 <0>         0.0310
     25 C19         4.4918   -3.2205    0.4521 C.3       1 <0>        -0.0612
     26 H1         -4.8012   -0.5237   -1.4202 H         1 <0>         0.0515
     27 H2         -4.0803   -0.7100    1.5838 H         1 <0>         0.0329
     28 H3         -3.6350   -1.9703    0.4802 H         1 <0>         0.0329
     29 H4         -3.0605    1.5626    1.3571 H         1 <0>         0.0621
     30 H5         -1.9787   -1.6863   -1.2619 H         1 <0>         0.0621
     31 H6          2.9804    3.2991   -1.4238 H         1 <0>         0.0361
     32 H7          3.2469    3.6945    0.2704 H         1 <0>         0.0361
     33 H8          0.8475    3.8278   -0.2679 H         1 <0>         0.0700
     34 H9          1.1541    2.4898    0.8785 H         1 <0>         0.0700
     35 H10        -1.1064    2.8115    0.6411 H         1 <0>         0.0654
     36 H11         0.0305   -0.4412   -1.9675 H         1 <0>         0.0654
     37 H12        -8.1582   -1.7065    0.2693 H         1 <0>         0.1583
     38 H13         3.8867    1.9279    1.8712 H         1 <0>         0.0636
     39 H14         6.2494   -2.0407    0.8596 H         1 <0>         0.0311
     40 H15         5.9569   -2.3128   -0.8429 H         1 <0>         0.0311
     41 H16         5.0345   -0.2533    2.0918 H         1 <0>         0.0621
     42 H17         4.3103   -0.9153   -2.0933 H         1 <0>         0.0832
     43 H18         3.7087   -3.3209   -0.3071 H         1 <0>         0.0233
     44 H19         5.0335   -4.1698    0.5107 H         1 <0>         0.0233
     45 H20         4.0052   -3.0453    1.4174 H         1 <0>         0.0233
@<TRIPOS>BOND
     1    1    7 1
     2    1   19 1
     3    2   14 1
     4    2   15 1
     5    3   10 2
     6    4   19 2
     7    5   10 am
     8    5   19 am
     9    5   37 1
    10    6   18 ar
    11    6   24 ar
    12    7    8 1
    13    7   10 1
    14    7   26 1
    15    8    9 1
    16    8   27 1
    17    8   28 1
    18    9   11 ar
    19    9   12 ar
    20   11   16 ar
    21   11   29 1
    22   12   17 ar
    23   12   30 1
    24   13   15 1
    25   13   18 1
    26   13   31 1
    27   13   32 1
    28   14   16 ar
    29   14   17 ar
    30   15   33 1
    31   15   34 1
    32   16   35 1
    33   17   36 1
    34   18   21 ar
    35   20   22 1
    36   20   23 ar
    37   20   24 ar
    38   21   23 ar
    39   21   38 1
    40   22   25 1
    41   22   39 1
    42   22   40 1
    43   23   41 1
    44   24   42 1
    45   25   43 1
    46   25   44 1
    47   25   45 1
