@<TRIPOS>MOLECULE
DB01413
   56    59     0     0     0
SMALL
USER_CHARGES

@<TRIPOS>ATOM
      1 S1          0.1783    0.7580   -1.2638 S.3       1 <0>        -0.1310
      2 S2          4.7494   -3.6355    0.8005 S.3       1 <0>        -0.0604
      3 O1          1.3992    0.8276    3.2232 O.2       1 <0>        -0.2731
      4 O2         -1.0377   -1.6130    3.0239 O.co2     1 <0>        -0.5433
      5 O3         -2.3021    0.2269    3.5238 O.co2     1 <0>        -0.5433
      6 O4          4.3336    1.4020    2.0481 O.2       1 <0>        -0.2683
      7 O5          5.5896    2.2792   -0.6546 O.3       1 <0>        -0.3964
      8 N1         -4.4383   -0.0845   -0.0608 N.4       1 <0>         0.2442
      9 N2         -0.0601    0.8853    1.3746 N.am      1 <0>        -0.2532
     10 N3          2.7928    1.1806    0.2912 N.am      1 <0>        -0.2963
     11 N4          5.8127    0.8957   -0.6890 N.2       1 <0>        -0.0779
     12 N5          6.0497   -1.8756   -0.5758 N.2       1 <0>        -0.2233
     13 N6          6.7174   -4.1172   -0.9218 N.pl3     1 <0>        -0.3375
     14 C1         -5.7503   -0.7859    0.3467 C.3       1 <0>        -0.0298
     15 C2         -4.4804    0.0230   -1.5990 C.3       1 <0>        -0.0298
     16 C3         -3.2352   -0.9047    0.3790 C.3       1 <0>        -0.0055
     17 C4         -6.3041   -1.3458   -0.9486 C.3       1 <0>        -0.0076
     18 C5         -5.9158   -0.2970   -1.9673 C.3       1 <0>        -0.0076
     19 C6         -4.3600    1.2975    0.5697 C.3       1 <0>        -0.0410
     20 C7         -1.9557   -0.1011    0.3731 C.2       1 <0>         0.0078
     21 C8          0.2680    1.7402    0.2505 C.3       1 <0>         0.1041
     22 C9          1.6644    1.8869    0.8961 C.3       1 <0>         0.1286
     23 C10        -1.1860    0.1321    1.4612 C.2       1 <0>         0.0649
     24 C11        -1.5897    0.3631   -1.0343 C.3       1 <0>         0.0237
     25 C12         1.0416    1.1389    2.1115 C.2       1 <0>         0.2438
     26 C13        -1.5459   -0.4816    2.8095 C.2       1 <0>         0.0861
     27 C14         4.0059    1.0167    0.9375 C.2       1 <0>         0.2684
     28 C15         5.0145    0.2586    0.1138 C.2       1 <0>         0.1897
     29 C16         5.1171   -1.2023    0.1890 C.2       1 <0>         0.1067
     30 C17         4.3214   -1.9865    0.9976 C.2       1 <0>         0.0067
     31 C18         5.9466   -3.1638   -0.3348 C.2       1 <0>         0.1562
     32 C19         6.4980    2.8945   -1.5549 C.3       1 <0>         0.1072
     33 H1         -6.4259   -0.0319    0.7657 H         1 <0>         0.0815
     34 H2         -5.5551   -1.5562    1.0984 H         1 <0>         0.0815
     35 H3         -3.8320   -0.7410   -2.0352 H         1 <0>         0.0815
     36 H4         -4.1922    1.0263   -1.9231 H         1 <0>         0.0815
     37 H5         -3.4623   -1.2657    1.3871 H         1 <0>         0.0865
     38 H6         -3.1628   -1.7911   -0.2627 H         1 <0>         0.0865
     39 H7         -5.8292   -2.3056   -1.1843 H         1 <0>         0.0319
     40 H8         -7.3853   -1.5031   -0.9009 H         1 <0>         0.0319
     41 H9         -6.5460    0.5939   -1.8604 H         1 <0>         0.0319
     42 H10        -6.0085   -0.6573   -2.9958 H         1 <0>         0.0319
     43 H11        -4.3021    1.1796    1.6558 H         1 <0>         0.0778
     44 H12        -3.5158    1.8704    0.1853 H         1 <0>         0.0778
     45 H13        -5.2782    1.8357    0.3106 H         1 <0>         0.0778
     46 H14        -0.3150    2.6687    0.2364 H         1 <0>         0.0644
     47 H15         1.9240    2.9274    1.1244 H         1 <0>         0.0622
     48 H16        -2.1383    1.2580   -1.3273 H         1 <0>         0.0425
     49 H17        -1.7730   -0.4350   -1.7576 H         1 <0>         0.0425
     50 H18         2.6987    0.7912   -0.6439 H         1 <0>         0.1499
     51 H19         3.5323   -1.6938    1.6760 H         1 <0>         0.0716
     52 H20         7.5301    2.6940   -1.2508 H         1 <0>         0.0687
     53 H21         6.3280    2.5328   -2.5737 H         1 <0>         0.0687
     54 H22         6.3293    3.9743   -1.5333 H         1 <0>         0.0687
     55 H23         6.6045   -5.1026   -0.7076 H         1 <0>         0.1442
     56 H24         7.4358   -3.8816   -1.5986 H         1 <0>         0.1442
@<TRIPOS>BOND
     1    1   21 1
     2    1   24 1
     3    2   30 1
     4    2   31 1
     5    3   25 2
     6    4   26 2
     7    5   26 1
     8    6   27 2
     9    7   11 1
    10    7   32 1
    11    8   14 1
    12    8   15 1
    13    8   16 1
    14    8   19 1
    15    9   21 1
    16    9   23 1
    17    9   25 am
    18   10   22 1
    19   10   27 am
    20   10   50 1
    21   11   28 2
    22   12   29 1
    23   12   31 2
    24   13   31 1
    25   13   55 1
    26   13   56 1
    27   14   17 1
    28   14   33 1
    29   14   34 1
    30   15   18 1
    31   15   35 1
    32   15   36 1
    33   16   20 1
    34   16   37 1
    35   16   38 1
    36   17   18 1
    37   17   39 1
    38   17   40 1
    39   18   41 1
    40   18   42 1
    41   19   43 1
    42   19   44 1
    43   19   45 1
    44   20   23 2
    45   20   24 1
    46   21   22 1
    47   21   46 1
    48   22   25 1
    49   22   47 1
    50   23   26 1
    51   24   48 1
    52   24   49 1
    53   27   28 1
    54   28   29 1
    55   29   30 2
    56   30   51 1
    57   32   52 1
    58   32   53 1
    59   32   54 1
