@<TRIPOS>MOLECULE
DB01956
   14    13     0     0     0
SMALL
USER_CHARGES

@<TRIPOS>ATOM
      1 S1         -2.0986   -0.1481    0.0119 S.o2      1 <0>        -0.0756
      2 O1         -2.1162   -0.9167    1.2556 O.3       1 <0>        -0.7244
      3 O2         -2.9583    1.0347    0.0055 O.2       1 <0>        -0.1851
      4 O3         -2.1443   -0.9503   -1.2098 O.2       1 <0>        -0.1851
      5 N1          1.9501    0.1141    0.0102 N.4       1 <0>         0.2197
      6 C1         -0.4718    0.5360   -0.0162 C.3       1 <0>         0.0944
      7 C2          0.6112   -0.5232   -0.0140 C.3       1 <0>        -0.0166
      8 H1         -0.3802    1.1860    0.8613 H         1 <0>         0.0543
      9 H2         -0.3975    1.1642   -0.9108 H         1 <0>         0.0543
     10 H3          0.5568   -1.1673    0.8686 H         1 <0>         0.0829
     11 H4          0.5764   -1.1484   -0.9112 H         1 <0>         0.0829
     12 H5          2.0973    0.7162   -0.8108 H         1 <0>         0.1995
     13 H6          2.6974   -0.5927    0.0103 H         1 <0>         0.1995
     14 H7          2.0777    0.6954    0.8494 H         1 <0>         0.1995
@<TRIPOS>BOND
     1    1    2 1
     2    1    3 2
     3    1    4 2
     4    1    6 1
     5    5    7 1
     6    5   12 1
     7    5   13 1
     8    5   14 1
     9    6    7 1
    10    6    8 1
    11    6    9 1
    12    7   10 1
    13    7   11 1
