@<TRIPOS>MOLECULE
DB01227
   57    58     0     0     0
SMALL
USER_CHARGES

@<TRIPOS>ATOM
      1 O1          0.7837   -1.4913   -1.0728 O.3       1 <0>        -0.4603
      2 O2          0.2674   -3.1343   -2.6126 O.2       1 <0>        -0.2512
      3 N1          2.3940    0.5644    0.5697 N.3       1 <0>        -0.3056
      4 C1         -0.7289    0.2043   -0.0420 C.3       1 <0>         0.0589
      5 C2          0.0757    0.0300    1.3151 C.3       1 <0>        -0.0205
      6 C3         -0.5927   -1.1923   -0.8126 C.3       1 <0>         0.1164
      7 C4          1.5563   -0.4274    1.2474 C.3       1 <0>         0.0082
      8 C5         -0.0286    1.3542   -0.8327 C.ar      1 <0>        -0.0333
      9 C6         -2.2526    0.4622    0.1630 C.ar      1 <0>        -0.0333
     10 C7         -1.2451   -2.4183   -0.1348 C.3       1 <0>        -0.0173
     11 C8          2.1119   -0.6399    2.6588 C.3       1 <0>        -0.0495
     12 C9         -0.0692    2.6028   -0.2921 C.ar      1 <0>        -0.0576
     13 C10        -3.0245    0.5957   -0.9518 C.ar      1 <0>        -0.0576
     14 C11         0.5757    1.0299   -2.0087 C.ar      1 <0>        -0.0576
     15 C12        -2.7125    0.5368    1.4433 C.ar      1 <0>        -0.0576
     16 C13        -2.7530   -2.2466    0.0271 C.3       1 <0>        -0.0619
     17 C14         3.7755    0.0934    0.4884 C.3       1 <0>        -0.0128
     18 C15         2.3299    1.8472    1.2675 C.3       1 <0>        -0.0128
     19 C16         0.5566    3.6302   -0.9982 C.ar      1 <0>        -0.0615
     20 C17        -4.3879    0.8262   -0.7685 C.ar      1 <0>        -0.0615
     21 C18         1.2015    2.0573   -2.7149 C.ar      1 <0>        -0.0615
     22 C19        -4.0760    0.7671    1.6265 C.ar      1 <0>        -0.0615
     23 C20         1.0101   -2.6355   -1.7780 C.2       1 <0>         0.3042
     24 C21         1.1920    3.3574   -2.2094 C.ar      1 <0>        -0.0617
     25 C22        -4.9136    0.9118    0.5205 C.ar      1 <0>        -0.0617
     26 C23         2.3332   -3.2151   -1.3787 C.3       1 <0>         0.0332
     27 H1         -0.0382    0.9124    1.9534 H         1 <0>         0.0293
     28 H2         -0.4236   -0.7575    1.8977 H         1 <0>         0.0293
     29 H3         -1.0832   -1.0953   -1.7920 H         1 <0>         0.0746
     30 H4          1.6467   -1.4154    0.8051 H         1 <0>         0.0460
     31 H5         -0.7788   -2.6345    0.8324 H         1 <0>         0.0298
     32 H6         -1.0975   -3.3322   -0.7171 H         1 <0>         0.0298
     33 H7          3.1204   -1.0633    2.6771 H         1 <0>         0.0245
     34 H8          2.0897    0.2567    3.2857 H         1 <0>         0.0245
     35 H9          1.4858   -1.3766    3.1796 H         1 <0>         0.0245
     36 H10        -0.5840    2.8334    0.6343 H         1 <0>         0.0621
     37 H11        -2.6304    0.5456   -1.9605 H         1 <0>         0.0621
     38 H12         0.5607    0.0871   -2.5287 H         1 <0>         0.0621
     39 H13        -2.1147    0.4416    2.3385 H         1 <0>         0.0621
     40 H14        -3.0481   -1.7888    0.9648 H         1 <0>         0.0231
     41 H15        -3.1681   -3.2606    0.1318 H         1 <0>         0.0231
     42 H16        -3.2516   -1.8631   -0.8622 H         1 <0>         0.0231
     43 H17         4.3260    0.1256    1.4344 H         1 <0>         0.0391
     44 H18         3.8312   -0.9220    0.0827 H         1 <0>         0.0391
     45 H19         4.3258    0.7302   -0.2148 H         1 <0>         0.0391
     46 H20         2.7200    2.6271    0.6028 H         1 <0>         0.0391
     47 H21         1.3713    2.1950    1.6400 H         1 <0>         0.0391
     48 H22         2.9954    1.8678    2.1411 H         1 <0>         0.0391
     49 H23         0.5432    4.6437   -0.6080 H         1 <0>         0.0618
     50 H24        -5.0398    0.9418   -1.6296 H         1 <0>         0.0618
     51 H25         1.6792    1.8509   -3.6683 H         1 <0>         0.0618
     52 H26        -4.4861    0.8356    2.6299 H         1 <0>         0.0618
     53 H27         1.6743    4.1584   -2.7620 H         1 <0>         0.0618
     54 H28        -5.9751    1.0921    0.6632 H         1 <0>         0.0618
     55 H29         2.5007   -4.1441   -1.9317 H         1 <0>         0.0342
     56 H30         3.1342   -2.5156   -1.6284 H         1 <0>         0.0342
     57 H31         2.3354   -3.4464   -0.3110 H         1 <0>         0.0342
@<TRIPOS>BOND
     1    1    6 1
     2    1   23 1
     3    2   23 2
     4    3    7 1
     5    3   17 1
     6    3   18 1
     7    4    5 1
     8    4    6 1
     9    4    8 1
    10    4    9 1
    11    5    7 1
    12    5   27 1
    13    5   28 1
    14    6   10 1
    15    6   29 1
    16    7   11 1
    17    7   30 1
    18    8   12 ar
    19    8   14 ar
    20    9   13 ar
    21    9   15 ar
    22   10   16 1
    23   10   31 1
    24   10   32 1
    25   11   33 1
    26   11   34 1
    27   11   35 1
    28   12   19 ar
    29   12   36 1
    30   13   20 ar
    31   13   37 1
    32   14   21 ar
    33   14   38 1
    34   15   22 ar
    35   15   39 1
    36   16   40 1
    37   16   41 1
    38   16   42 1
    39   17   43 1
    40   17   44 1
    41   17   45 1
    42   18   46 1
    43   18   47 1
    44   18   48 1
    45   19   24 ar
    46   19   49 1
    47   20   25 ar
    48   20   50 1
    49   21   24 ar
    50   21   51 1
    51   22   25 ar
    52   22   52 1
    53   23   26 1
    54   24   53 1
    55   25   54 1
    56   26   55 1
    57   26   56 1
    58   26   57 1
