@<TRIPOS>MOLECULE
DB01283
   33    34     0     0     0
SMALL
USER_CHARGES

@<TRIPOS>ATOM
      1 Cl1         3.0398    2.2123   -1.5446 Cl        1 <0>        -0.0815
      2 F1          1.4695   -1.7340    1.2878 F         1 <0>        -0.2035
      3 O1         -1.6461    4.2406    0.3732 O.3       1 <0>        -0.4804
      4 O2         -1.8457    2.7804   -1.3537 O.2       1 <0>        -0.2507
      5 N1          0.9080    0.5602   -0.1376 N.pl3     1 <0>        -0.3109
      6 C1         -1.4840    0.5351    0.3458 C.ar      1 <0>        -0.0154
      7 C2         -0.3412   -0.0981   -0.1429 C.ar      1 <0>         0.0352
      8 C3         -2.7097   -0.1306    0.3334 C.ar      1 <0>        -0.0534
      9 C4         -2.7927   -1.4297   -0.1680 C.ar      1 <0>        -0.0501
     10 C5         -1.4241    1.9263    0.8875 C.3       1 <0>         0.0716
     11 C6         -0.4242   -1.3972   -0.6442 C.ar      1 <0>        -0.0400
     12 C7         -1.6498   -2.0629   -0.6569 C.ar      1 <0>        -0.0571
     13 C8          2.2306    0.0920   -0.0282 C.ar      1 <0>         0.0855
     14 C9         -4.1028   -2.1420   -0.1820 C.3       1 <0>        -0.0397
     15 C10         3.2950    0.7674   -0.6324 C.ar      1 <0>         0.0649
     16 C11         2.4787   -1.0740    0.7018 C.ar      1 <0>         0.1458
     17 C12        -1.6613    2.9917   -0.1629 C.2       1 <0>         0.3091
     18 C13         4.5963    0.2808   -0.5080 C.ar      1 <0>        -0.0414
     19 C14         3.7800   -1.5606    0.8263 C.ar      1 <0>        -0.0245
     20 C15         4.8387   -0.8832    0.2213 C.ar      1 <0>        -0.0576
     21 H1         -3.6027    0.3607    0.7128 H         1 <0>         0.0624
     22 H2         -0.4650    2.1212    1.3803 H         1 <0>         0.0427
     23 H3         -2.1942    2.0474    1.6604 H         1 <0>         0.0427
     24 H4          0.4412   -1.9066   -1.0594 H         1 <0>         0.0636
     25 H5          0.8487    1.5568   -0.3246 H         1 <0>         0.1523
     26 H6         -1.7025   -3.0730   -1.0546 H         1 <0>         0.0621
     27 H7         -4.9300   -1.4417   -0.3396 H         1 <0>         0.0278
     28 H8         -4.1466   -2.8765   -0.9934 H         1 <0>         0.0278
     29 H9         -4.2579   -2.6615    0.7687 H         1 <0>         0.0278
     30 H10         5.4327    0.7966   -0.9731 H         1 <0>         0.0633
     31 H11         3.9685   -2.4669    1.3942 H         1 <0>         0.0647
     32 H12         5.8518   -1.2623    0.3184 H         1 <0>         0.0619
     33 H13        -1.7990    4.9315   -0.3062 H         1 <0>         0.2951
@<TRIPOS>BOND
     1    1   15 1
     2    2   16 1
     3    3   17 1
     4    3   33 1
     5    4   17 2
     6    5    7 1
     7    5   13 1
     8    5   25 1
     9    6    7 ar
    10    6    8 ar
    11    6   10 1
    12    7   11 ar
    13    8    9 ar
    14    8   21 1
    15    9   12 ar
    16    9   14 1
    17   10   17 1
    18   10   22 1
    19   10   23 1
    20   11   12 ar
    21   11   24 1
    22   12   26 1
    23   13   15 ar
    24   13   16 ar
    25   14   27 1
    26   14   28 1
    27   14   29 1
    28   15   18 ar
    29   16   19 ar
    30   18   20 ar
    31   18   30 1
    32   19   20 ar
    33   19   31 1
    34   20   32 1
