@<TRIPOS>MOLECULE
DB01008
   28    27     0     0     0
SMALL
USER_CHARGES

@<TRIPOS>ATOM
      1 S1         -4.4618   -0.7209    0.0162 S.o2      1 <0>         0.0793
      2 S2          4.4618    0.7208    0.0176 S.o2      1 <0>         0.0793
      3 O1         -3.0536    0.1057   -0.0019 O.3       1 <0>        -0.2387
      4 O2          3.0536   -0.1056   -0.0069 O.3       1 <0>        -0.2387
      5 O3         -4.6113   -1.3891    1.2929 O.2       1 <0>        -0.1475
      6 O4         -4.6252   -1.4215   -1.2415 O.2       1 <0>        -0.1475
      7 O5          4.6068    1.3868    1.2959 O.2       1 <0>        -0.1475
      8 O6          4.6297    1.4235   -1.2383 O.2       1 <0>        -0.1475
      9 C1         -0.6725    0.3590   -0.0179 C.3       1 <0>        -0.0250
     10 C2          0.6725   -0.3588   -0.0319 C.3       1 <0>        -0.0250
     11 C3         -1.8343   -0.6241    0.0008 C.3       1 <0>         0.0766
     12 C4          1.8344    0.6240   -0.0074 C.3       1 <0>         0.0766
     13 C5         -5.5326    0.6943    0.0040 C.3       1 <0>         0.0817
     14 C6          5.5326   -0.6943    0.0069 C.3       1 <0>         0.0817
     15 H1         -0.7433    1.0179    0.8566 H         1 <0>         0.0289
     16 H2         -0.7625    1.0133   -0.8940 H         1 <0>         0.0289
     17 H3          0.7538   -0.9973   -0.9205 H         1 <0>         0.0289
     18 H4          0.7517   -1.0333    0.8300 H         1 <0>         0.0289
     19 H5         -1.7999   -1.2717   -0.8822 H         1 <0>         0.0584
     20 H6         -1.7899   -1.2500    0.8989 H         1 <0>         0.0584
     21 H7          1.7876    1.2476    0.8921 H         1 <0>         0.0584
     22 H8          1.8024    1.2740   -0.8887 H         1 <0>         0.0584
     23 H9         -5.3357    1.2947    0.8943 H         1 <0>         0.0489
     24 H10        -5.3456    1.2718   -0.9034 H         1 <0>         0.0489
     25 H11        -6.5652    0.3390    0.0142 H         1 <0>         0.0489
     26 H12         6.5651   -0.3392    0.0212 H         1 <0>         0.0489
     27 H13         5.3326   -1.2962    0.8954 H         1 <0>         0.0489
     28 H14         5.3488   -1.2704   -0.9021 H         1 <0>         0.0489
@<TRIPOS>BOND
     1    1    3 1
     2    1    5 2
     3    1    6 2
     4    1   13 1
     5    2    4 1
     6    2    7 2
     7    2    8 2
     8    2   14 1
     9    3   11 1
    10    4   12 1
    11    9   10 1
    12    9   11 1
    13    9   15 1
    14    9   16 1
    15   10   12 1
    16   10   17 1
    17   10   18 1
    18   11   19 1
    19   11   20 1
    20   12   21 1
    21   12   22 1
    22   13   23 1
    23   13   24 1
    24   13   25 1
    25   14   26 1
    26   14   27 1
    27   14   28 1
