@<TRIPOS>MOLECULE
DB01501
   60    63     0     0     0
SMALL
USER_CHARGES

@<TRIPOS>ATOM
      1 O1         -4.4742    2.4275    0.4254 O.3       1 <0>        -0.4800
      2 O2         -2.8128    1.7912    1.8502 O.2       1 <0>        -0.2500
      3 N1         -0.7102    0.1607   -0.9915 N.3       1 <0>        -0.3022
      4 N2          3.6342    0.1638   -3.3850 N.1       1 <0>        -0.1953
      5 C1         -3.5005    0.3069    0.0495 C.3       1 <0>         0.0947
      6 C2         -3.0850    0.7105   -1.3886 C.3       1 <0>        -0.0203
      7 C3         -2.4206   -0.6554    0.6072 C.3       1 <0>        -0.0203
      8 C4         -1.6311    1.1855   -1.4918 C.3       1 <0>         0.0002
      9 C5         -0.9874   -0.1443    0.4149 C.3       1 <0>         0.0002
     10 C6          0.6774    0.5922   -1.1588 C.3       1 <0>         0.0009
     11 C7         -4.8934   -0.3383    0.1427 C.ar      1 <0>        -0.0305
     12 C8          1.6332   -0.5092   -0.6658 C.3       1 <0>        -0.0135
     13 C9         -3.5321    1.5696    0.8876 C.2       1 <0>         0.3154
     14 C10         3.1663   -0.1733   -0.7923 C.3       1 <0>         0.1082
     15 C11        -5.6462   -0.5301   -1.0127 C.ar      1 <0>        -0.0575
     16 C12        -5.3944   -0.7280    1.3818 C.ar      1 <0>        -0.0575
     17 C13         4.0848   -1.3383   -0.3362 C.ar      1 <0>        -0.0232
     18 C14         3.4651    1.0800    0.0660 C.ar      1 <0>        -0.0232
     19 C15        -6.9095   -1.1157   -0.9282 C.ar      1 <0>        -0.0615
     20 C16        -6.6577   -1.3137    1.4664 C.ar      1 <0>        -0.0615
     21 C17         3.4317    0.0250   -2.2502 C.1       1 <0>         0.0787
     22 C18        -7.4151   -1.5075    0.3113 C.ar      1 <0>        -0.0617
     23 C19         5.4337   -1.1796   -0.4798 C.ar      1 <0>        -0.0568
     24 C20         3.9241    2.1991   -0.5721 C.ar      1 <0>        -0.0568
     25 C21         3.4902   -2.4532    0.1815 C.ar      1 <0>        -0.0568
     26 C22         3.2539    0.9985    1.4145 C.ar      1 <0>        -0.0568
     27 C23         6.2593   -2.2267   -0.0702 C.ar      1 <0>        -0.0614
     28 C24         4.1937    3.3283    0.2012 C.ar      1 <0>        -0.0614
     29 C25         4.3157   -3.5003    0.5912 C.ar      1 <0>        -0.0614
     30 C26         3.5234    2.1277    2.1878 C.ar      1 <0>        -0.0614
     31 C27         5.7002   -3.3870    0.4652 C.ar      1 <0>        -0.0617
     32 C28         3.9934    3.2925    1.5811 C.ar      1 <0>        -0.0617
     33 H1         -3.1766   -0.1557   -2.0590 H         1 <0>         0.0291
     34 H2         -3.7352    1.4950   -1.7963 H         1 <0>         0.0291
     35 H3         -2.5724   -0.8485    1.6771 H         1 <0>         0.0291
     36 H4         -2.5153   -1.6303    0.1073 H         1 <0>         0.0291
     37 H5         -1.5033    2.1331   -0.9528 H         1 <0>         0.0427
     38 H6         -1.4183    1.3877   -2.5491 H         1 <0>         0.0427
     39 H7         -0.3812   -0.9765    0.7807 H         1 <0>         0.0427
     40 H8         -0.7763    0.7157    1.0599 H         1 <0>         0.0427
     41 H9          0.8551    1.5293   -0.6177 H         1 <0>         0.0427
     42 H10         0.8632    0.7870   -2.2211 H         1 <0>         0.0427
     43 H11         1.4039   -1.4210   -1.2374 H         1 <0>         0.0299
     44 H12         1.4463   -0.7218    0.3881 H         1 <0>         0.0299
     45 H13        -5.3101   -0.2360   -2.0000 H         1 <0>         0.0621
     46 H14        -4.8250   -0.5816    2.2952 H         1 <0>         0.0621
     47 H15        -4.5110    3.2516    0.9561 H         1 <0>         0.2951
     48 H16        -7.5011   -1.2645   -1.8268 H         1 <0>         0.0618
     49 H17        -7.0522   -1.6175    2.4316 H         1 <0>         0.0618
     50 H18        -8.3990   -1.9624    0.3771 H         1 <0>         0.0618
     51 H19         5.8850   -0.2833   -0.8918 H         1 <0>         0.0621
     52 H20         4.0959    2.2796   -1.6378 H         1 <0>         0.0621
     53 H21         2.4265   -2.6015    0.3068 H         1 <0>         0.0621
     54 H22         2.8968    0.1009    1.9070 H         1 <0>         0.0621
     55 H23         7.3374   -2.1382   -0.1675 H         1 <0>         0.0618
     56 H24         4.5596    4.2358   -0.2704 H         1 <0>         0.0618
     57 H25         3.8815   -4.4041    1.0088 H         1 <0>         0.0618
     58 H26         3.3692    2.0996    3.2625 H         1 <0>         0.0618
     59 H27         6.3430   -4.2021    0.7843 H         1 <0>         0.0618
     60 H28         4.2036    4.1715    2.1833 H         1 <0>         0.0618
@<TRIPOS>BOND
     1    1   13 1
     2    1   47 1
     3    2   13 2
     4    3    8 1
     5    3    9 1
     6    3   10 1
     7    4   21 3
     8    5    6 1
     9    5    7 1
    10    5   11 1
    11    5   13 1
    12    6    8 1
    13    6   33 1
    14    6   34 1
    15    7    9 1
    16    7   35 1
    17    7   36 1
    18    8   37 1
    19    8   38 1
    20    9   39 1
    21    9   40 1
    22   10   12 1
    23   10   41 1
    24   10   42 1
    25   11   15 ar
    26   11   16 ar
    27   12   14 1
    28   12   43 1
    29   12   44 1
    30   14   17 1
    31   14   18 1
    32   14   21 1
    33   15   19 ar
    34   15   45 1
    35   16   20 ar
    36   16   46 1
    37   17   23 ar
    38   17   25 ar
    39   18   24 ar
    40   18   26 ar
    41   19   22 ar
    42   19   48 1
    43   20   22 ar
    44   20   49 1
    45   22   50 1
    46   23   27 ar
    47   23   51 1
    48   24   28 ar
    49   24   52 1
    50   25   29 ar
    51   25   53 1
    52   26   30 ar
    53   26   54 1
    54   27   31 ar
    55   27   55 1
    56   28   32 ar
    57   28   56 1
    58   29   31 ar
    59   29   57 1
    60   30   32 ar
    61   30   58 1
    62   31   59 1
    63   32   60 1
