@<TRIPOS>MOLECULE
DB01559
   36    38     0     0     0
SMALL
USER_CHARGES

@<TRIPOS>ATOM
      1 Cl1        -1.4481   -1.5838   -2.4598 Cl        1 <0>        -0.0829
      2 S1          2.6706    0.8727   -0.0398 S.3       1 <0>        -0.0776
      3 O1          1.9955   -4.0799   -0.2005 O.2       1 <0>        -0.2732
      4 N1          2.2907   -1.7669   -0.2512 N.am      1 <0>        -0.2668
      5 N2         -0.5277   -2.4205    0.9114 N.2       1 <0>        -0.2733
      6 C1          0.3960   -0.2327    0.4545 C.2       1 <0>         0.0295
      7 C2          1.6985   -0.5331    0.0751 C.2       1 <0>         0.0836
      8 C3         -0.6949   -1.2068    0.5117 C.2       1 <0>         0.0769
      9 C4          1.4157    1.8787    0.5157 C.2       1 <0>        -0.0080
     10 C5          0.2585    1.1714    0.7365 C.2       1 <0>        -0.0405
     11 C6          1.6557    3.3281    0.6814 C.3       1 <0>        -0.0242
     12 C7          0.7750   -2.8276    1.4005 C.3       1 <0>         0.1170
     13 C8          1.7181   -2.9554    0.2261 C.2       1 <0>         0.2413
     14 C9         -2.0519   -0.7863    0.0786 C.ar      1 <0>         0.0189
     15 C10         3.4794   -1.8745   -1.1008 C.3       1 <0>         0.0088
     16 C11         1.3623    4.1253   -0.5939 C.3       1 <0>        -0.0608
     17 C12        -2.4772   -0.9197   -1.2419 C.ar      1 <0>         0.0501
     18 C13        -2.9067   -0.2456    1.0379 C.ar      1 <0>        -0.0512
     19 C14        -3.7608   -0.5112   -1.6044 C.ar      1 <0>        -0.0427
     20 C15        -4.1902    0.1629    0.6754 C.ar      1 <0>        -0.0611
     21 C16        -4.6173    0.0300   -0.6457 C.ar      1 <0>        -0.0603
     22 H1         -0.6571    1.6452    1.0681 H         1 <0>         0.0633
     23 H2          1.0186    3.7134    1.4876 H         1 <0>         0.0316
     24 H3          2.6890    3.5219    0.9949 H         1 <0>         0.0316
     25 H4          0.6808   -3.8127    1.8718 H         1 <0>         0.0605
     26 H5          1.1760   -2.1622    2.1740 H         1 <0>         0.0605
     27 H6          4.3474   -1.4886   -0.5574 H         1 <0>         0.0433
     28 H7          3.3215   -1.3065   -2.0229 H         1 <0>         0.0433
     29 H8          3.6884   -2.9132   -1.3716 H         1 <0>         0.0433
     30 H9          2.0101    3.8077   -1.4177 H         1 <0>         0.0233
     31 H10         1.5320    5.1923   -0.4188 H         1 <0>         0.0233
     32 H11         0.3224    3.9920   -0.9109 H         1 <0>         0.0233
     33 H12        -2.5876   -0.1386    2.0717 H         1 <0>         0.0625
     34 H13        -4.1090   -0.6077   -2.6297 H         1 <0>         0.0632
     35 H14        -4.8572    0.5838    1.4220 H         1 <0>         0.0618
     36 H15        -5.6167    0.3481   -0.9277 H         1 <0>         0.0618
@<TRIPOS>BOND
     1    1   17 1
     2    2    7 1
     3    2    9 1
     4    3   13 2
     5    4    7 1
     6    4   13 am
     7    4   15 1
     8    5    8 2
     9    5   12 1
    10    6    7 2
    11    6    8 1
    12    6   10 1
    13    8   14 1
    14    9   10 2
    15    9   11 1
    16   10   22 1
    17   11   16 1
    18   11   23 1
    19   11   24 1
    20   12   13 1
    21   12   25 1
    22   12   26 1
    23   14   17 ar
    24   14   18 ar
    25   15   27 1
    26   15   28 1
    27   15   29 1
    28   16   30 1
    29   16   31 1
    30   16   32 1
    31   17   19 ar
    32   18   20 ar
    33   18   33 1
    34   19   21 ar
    35   19   34 1
    36   20   21 ar
    37   20   35 1
    38   21   36 1
