@<TRIPOS>MOLECULE
DB01426
   50    55     0     0     0
SMALL
USER_CHARGES

@<TRIPOS>ATOM
      1 O1          0.3712    2.9423   -0.4170 O.3       1 <0>        -0.3905
      2 O2         -2.5546   -2.8079    0.7544 O.3       1 <0>        -0.3769
      3 N1         -0.8682   -1.0911    1.0218 N.3       1 <0>        -0.2693
      4 N2          2.3257   -1.4370    0.0849 N.pl3     1 <0>        -0.3272
      5 C1          1.2084    0.6889    0.0345 C.3       1 <0>         0.0450
      6 C2         -1.1766    1.1368   -0.0617 C.3       1 <0>         0.0049
      7 C3         -0.7706    0.3766    1.2428 C.3       1 <0>         0.0195
      8 C4         -0.2316   -1.4419   -0.2901 C.3       1 <0>         0.0327
      9 C5         -2.0420    0.1655   -0.9169 C.3       1 <0>        -0.0265
     10 C6          1.1510   -0.7758   -0.5071 C.3       1 <0>         0.0509
     11 C7          0.1815    1.5601   -0.7105 C.3       1 <0>         0.0712
     12 C8          0.6851    0.7259    1.4738 C.3       1 <0>        -0.0230
     13 C9         -1.1610   -0.9785   -1.4470 C.3       1 <0>        -0.0319
     14 C10        -3.0942   -0.5494   -0.0216 C.3       1 <0>         0.0018
     15 C11        -2.3216   -1.4211    1.0169 C.3       1 <0>         0.1123
     16 C12         2.6892    0.8778    0.0193 C.ar      1 <0>        -0.0159
     17 C13         3.2901   -0.4004    0.1065 C.ar      1 <0>         0.0336
     18 C14        -4.0681    0.4253    0.6415 C.3       1 <0>        -0.0492
     19 C15         3.4458    2.0359    0.0042 C.ar      1 <0>        -0.0561
     20 C16         2.7163   -2.7865   -0.2584 C.3       1 <0>         0.0011
     21 C17         4.6698   -0.5125    0.1959 C.ar      1 <0>        -0.0404
     22 C18        -4.8643    1.1972   -0.3918 C.3       1 <0>        -0.0649
     23 C19         4.8339    1.9155    0.0781 C.ar      1 <0>        -0.0614
     24 C20         5.4401    0.6540    0.1768 C.ar      1 <0>        -0.0600
     25 H1         -1.7680    2.0225    0.1996 H         1 <0>         0.0344
     26 H2         -1.3636    0.6836    2.1119 H         1 <0>         0.0467
     27 H3         -0.1247   -2.5297   -0.3545 H         1 <0>         0.0482
     28 H4         -2.5077    0.6880   -1.7582 H         1 <0>         0.0309
     29 H5          1.3487   -0.7570   -1.5921 H         1 <0>         0.0525
     30 H6          0.2130    1.4454   -1.7978 H         1 <0>         0.0606
     31 H7          0.7852    1.7276    1.9114 H         1 <0>         0.0290
     32 H8          1.1817    0.0276    2.1590 H         1 <0>         0.0290
     33 H9         -1.7833   -1.8168   -1.7872 H         1 <0>         0.0284
     34 H10        -0.6044   -0.6546   -2.3331 H         1 <0>         0.0284
     35 H11        -3.6877   -1.2143   -0.6658 H         1 <0>         0.0342
     36 H12        -2.7129   -1.2499    2.0272 H         1 <0>         0.0770
     37 H13        -3.5664    1.1229    1.3187 H         1 <0>         0.0267
     38 H14        -4.7712   -0.1475    1.2592 H         1 <0>         0.0267
     39 H15        -0.3184    3.4376   -0.8913 H         1 <0>         0.2098
     40 H16         2.9865    3.0162   -0.0468 H         1 <0>         0.0621
     41 H17         3.4914   -3.1575    0.4204 H         1 <0>         0.0428
     42 H18         3.0907   -2.8390   -1.2865 H         1 <0>         0.0428
     43 H19         1.8691   -3.4727   -0.1706 H         1 <0>         0.0428
     44 H20        -3.5135   -2.9582    0.8156 H         1 <0>         0.2115
     45 H21         5.1612   -1.4765    0.2709 H         1 <0>         0.0636
     46 H22        -4.2395    1.9075   -0.9408 H         1 <0>         0.0230
     47 H23        -5.3456    0.5266   -1.1109 H         1 <0>         0.0230
     48 H24        -5.6521    1.7758    0.1023 H         1 <0>         0.0230
     49 H25         5.4533    2.8085    0.0697 H         1 <0>         0.0618
     50 H26         6.5228    0.5840    0.2400 H         1 <0>         0.0618
@<TRIPOS>BOND
     1    1   11 1
     2    1   39 1
     3    2   15 1
     4    2   44 1
     5    3    7 1
     6    3    8 1
     7    3   15 1
     8    4   10 1
     9    4   17 1
    10    4   20 1
    11    5   10 1
    12    5   11 1
    13    5   12 1
    14    5   16 1
    15    6    7 1
    16    6    9 1
    17    6   11 1
    18    6   25 1
    19    7   12 1
    20    7   26 1
    21    8   10 1
    22    8   13 1
    23    8   27 1
    24    9   13 1
    25    9   14 1
    26    9   28 1
    27   10   29 1
    28   11   30 1
    29   12   31 1
    30   12   32 1
    31   13   33 1
    32   13   34 1
    33   14   15 1
    34   14   18 1
    35   14   35 1
    36   15   36 1
    37   16   17 ar
    38   16   19 ar
    39   17   21 ar
    40   18   22 1
    41   18   37 1
    42   18   38 1
    43   19   23 ar
    44   19   40 1
    45   20   41 1
    46   20   42 1
    47   20   43 1
    48   21   24 ar
    49   21   45 1
    50   22   46 1
    51   22   47 1
    52   22   48 1
    53   23   24 ar
    54   23   49 1
    55   24   50 1
