@<TRIPOS>MOLECULE
DB01118
   60    62     0     0     0
SMALL
USER_CHARGES

@<TRIPOS>ATOM
      1 I1         -1.7376    0.6080   -3.0044 I         1 <0>        -0.0400
      2 I2         -1.6842    2.7481    2.7103 I         1 <0>        -0.0400
      3 O1          4.7762   -2.0495   -0.6070 O.3       1 <0>        -0.4590
      4 O2         -2.7683    1.8571   -0.2038 O.3       1 <0>        -0.4886
      5 O3          3.4964    1.9078    0.3298 O.2       1 <0>        -0.2865
      6 N1         -5.9851    0.1918    0.4567 N.3       1 <0>        -0.2996
      7 C1          5.6723    0.1218   -1.0931 C.3       1 <0>         0.0062
      8 C2          4.5696   -0.7067   -0.5820 C.2       1 <0>         0.1171
      9 C3          3.3284   -0.4141   -0.0660 C.2       1 <0>         0.0708
     10 C4          6.6802    0.5222    0.0074 C.3       1 <0>        -0.0464
     11 C5          2.7230   -1.6588    0.2507 C.ar      1 <0>         0.0313
     12 C6          3.6531   -2.6319   -0.1005 C.ar      1 <0>         0.1359
     13 C7         -5.0696    1.2543    0.0683 C.3       1 <0>         0.0331
     14 C8          7.7992    1.4197   -0.5209 C.3       1 <0>        -0.0555
     15 C9          2.7935    0.9062    0.1002 C.2       1 <0>         0.1971
     16 C10        -7.2985    0.7403    0.8035 C.3       1 <0>        -0.0038
     17 C11        -6.1177   -0.7962   -0.6166 C.3       1 <0>        -0.0038
     18 C12        -3.6265    0.7949    0.2019 C.3       1 <0>         0.1023
     19 C13         1.4936   -2.0702    0.7946 C.ar      1 <0>        -0.0503
     20 C14         1.3218    1.1587    0.0192 C.ar      1 <0>         0.0246
     21 C15         3.4464   -4.0016    0.0518 C.ar      1 <0>        -0.0187
     22 C16         8.7539    1.8319    0.5884 C.3       1 <0>        -0.0653
     23 C17        -7.9423    1.4210   -0.3924 C.3       1 <0>        -0.0524
     24 C18        -7.0174   -1.9461   -0.1963 C.3       1 <0>        -0.0524
     25 C19        -1.4239    1.6278   -0.1309 C.ar      1 <0>         0.1467
     26 C20         1.2565   -3.4417    0.9596 C.ar      1 <0>        -0.0610
     27 C21         2.2170   -4.3882    0.5938 C.ar      1 <0>        -0.0582
     28 C22         0.6250    0.8527   -1.1496 C.ar      1 <0>        -0.0342
     29 C23         0.6458    1.6992    1.1130 C.ar      1 <0>        -0.0342
     30 C24        -0.7479    1.0874   -1.2247 C.ar      1 <0>         0.0567
     31 C25        -0.7271    1.9337    1.0380 C.ar      1 <0>         0.0567
     32 H1          5.2705    1.0262   -1.5656 H         1 <0>         0.0344
     33 H2          6.2049   -0.4217   -1.8836 H         1 <0>         0.0344
     34 H3          7.1137   -0.3843    0.4490 H         1 <0>         0.0269
     35 H4          6.1500    1.0400    0.8168 H         1 <0>         0.0269
     36 H5         -5.1858    2.1321    0.7188 H         1 <0>         0.0460
     37 H6         -5.2395    1.6164   -0.9541 H         1 <0>         0.0460
     38 H7          7.3691    2.3189   -0.9771 H         1 <0>         0.0263
     39 H8          8.3579    0.8937   -1.3035 H         1 <0>         0.0263
     40 H9         -7.1815    1.4729    1.6129 H         1 <0>         0.0424
     41 H10        -7.9655   -0.0206    1.2223 H         1 <0>         0.0424
     42 H11        -5.1389   -1.2460   -0.8178 H         1 <0>         0.0424
     43 H12        -6.4483   -0.3762   -1.5731 H         1 <0>         0.0424
     44 H13        -3.4198    0.5149    1.2416 H         1 <0>         0.0709
     45 H14        -3.4249   -0.0841   -0.4166 H         1 <0>         0.0709
     46 H15         0.7305   -1.3623    1.0996 H         1 <0>         0.0625
     47 H16         4.1963   -4.7296   -0.2339 H         1 <0>         0.0654
     48 H17         9.2233    0.9559    1.0472 H         1 <0>         0.0230
     49 H18         9.5465    2.4717    0.1879 H         1 <0>         0.0230
     50 H19         8.2293    2.3901    1.3703 H         1 <0>         0.0230
     51 H20        -7.3375    2.2270   -0.8170 H         1 <0>         0.0242
     52 H21        -8.2215    0.7259   -1.1891 H         1 <0>         0.0242
     53 H22        -8.8784    1.8885   -0.0631 H         1 <0>         0.0242
     54 H23        -6.7455   -2.3331    0.7918 H         1 <0>         0.0242
     55 H24        -8.0765   -1.6717   -0.1903 H         1 <0>         0.0242
     56 H25        -6.9121   -2.7726   -0.9084 H         1 <0>         0.0242
     57 H26         0.3108   -3.7731    1.3811 H         1 <0>         0.0618
     58 H27         2.0055   -5.4454    0.7340 H         1 <0>         0.0619
     59 H28         1.1619    0.4360   -1.9991 H         1 <0>         0.0636
     60 H29         1.2000    1.9309    2.0201 H         1 <0>         0.0636
@<TRIPOS>BOND
     1    1   30 1
     2    2   31 1
     3    3    8 1
     4    3   12 1
     5    4   18 1
     6    4   25 1
     7    5   15 2
     8    6   13 1
     9    6   16 1
    10    6   17 1
    11    7    8 1
    12    7   10 1
    13    7   32 1
    14    7   33 1
    15    8    9 2
    16    9   11 1
    17    9   15 1
    18   10   14 1
    19   10   34 1
    20   10   35 1
    21   11   12 ar
    22   11   19 ar
    23   12   21 ar
    24   13   18 1
    25   13   36 1
    26   13   37 1
    27   14   22 1
    28   14   38 1
    29   14   39 1
    30   15   20 1
    31   16   23 1
    32   16   40 1
    33   16   41 1
    34   17   24 1
    35   17   42 1
    36   17   43 1
    37   18   44 1
    38   18   45 1
    39   19   26 ar
    40   19   46 1
    41   20   28 ar
    42   20   29 ar
    43   21   27 ar
    44   21   47 1
    45   22   48 1
    46   22   49 1
    47   22   50 1
    48   23   51 1
    49   23   52 1
    50   23   53 1
    51   24   54 1
    52   24   55 1
    53   24   56 1
    54   25   30 ar
    55   25   31 ar
    56   26   27 ar
    57   26   57 1
    58   27   58 1
    59   28   30 ar
    60   28   59 1
    61   29   31 ar
    62   29   60 1
