@<TRIPOS>MOLECULE
DB01097
   28    29     0     0     0
SMALL
USER_CHARGES

@<TRIPOS>ATOM
      1 F1         -5.3028   -1.8566   -0.0289 F         1 <0>        -0.1659
      2 F2         -5.7310   -0.0300    1.0694 F         1 <0>        -0.1659
      3 F3         -5.6904   -0.0033   -1.1098 F         1 <0>        -0.1659
      4 O1          5.0443    0.7731   -0.0362 O.3       1 <0>        -0.3592
      5 O2          1.4644   -1.3770    0.0154 O.2       1 <0>        -0.2697
      6 N1          0.4572    0.7325    0.0302 N.am      1 <0>        -0.2814
      7 N2          4.4848    2.0452   -0.0475 N.2       1 <0>        -0.0857
      8 C1         -0.9035    0.4250    0.0192 C.ar      1 <0>         0.0337
      9 C2         -3.6245   -0.1900   -0.0035 C.ar      1 <0>         0.0549
     10 C3          2.8729    0.4947   -0.0009 C.2       1 <0>         0.0984
     11 C4         -1.3175   -0.9070    0.0038 C.ar      1 <0>        -0.0399
     12 C5         -1.8501    1.4494    0.0233 C.ar      1 <0>        -0.0399
     13 C6         -2.6780   -1.2145   -0.0076 C.ar      1 <0>        -0.0484
     14 C7         -3.2107    1.1419    0.0119 C.ar      1 <0>        -0.0484
     15 C8          1.5503   -0.1525    0.0280 C.2       1 <0>         0.2531
     16 C9          4.0518   -0.1528   -0.0079 C.2       1 <0>         0.1463
     17 C10        -5.0793   -0.5186   -0.0151 C.3       1 <0>         0.4174
     18 C11         3.1643    1.8422   -0.0257 C.2       1 <0>         0.0825
     19 C12         4.4750   -1.5597    0.0077 C.3       1 <0>        -0.0029
     20 H1         -0.6512   -1.7575   -0.0002 H         1 <0>         0.0636
     21 H2         -1.5422    2.4919    0.0353 H         1 <0>         0.0636
     22 H3          0.6567    1.7289    0.0375 H         1 <0>         0.1551
     23 H4         -2.9804   -2.2581   -0.0194 H         1 <0>         0.0624
     24 H5         -3.9407    1.9470    0.0153 H         1 <0>         0.0624
     25 H6          2.5199    2.7085   -0.0300 H         1 <0>         0.0872
     26 H7          5.5661   -1.6499    0.0066 H         1 <0>         0.0309
     27 H8          4.0994   -2.0661    0.9022 H         1 <0>         0.0309
     28 H9          4.0954   -2.0866   -0.8731 H         1 <0>         0.0309
@<TRIPOS>BOND
     1    1   17 1
     2    2   17 1
     3    3   17 1
     4    4    7 1
     5    4   16 1
     6    5   15 2
     7    6    8 1
     8    6   15 am
     9    6   22 1
    10    7   18 2
    11    8   11 ar
    12    8   12 ar
    13    9   13 ar
    14    9   14 ar
    15    9   17 1
    16   10   15 1
    17   10   16 2
    18   10   18 1
    19   11   13 ar
    20   11   20 1
    21   12   14 ar
    22   12   21 1
    23   13   23 1
    24   14   24 1
    25   16   19 1
    26   18   25 1
    27   19   26 1
    28   19   27 1
    29   19   28 1
