@<TRIPOS>MOLECULE
DB01159
    8     7     0     0     0
SMALL
USER_CHARGES

@<TRIPOS>ATOM
      1 Br1        -1.6361    1.4867   -0.4412 Br        1 <0>        -0.0614
      2 Cl1        -1.3702   -1.5304   -0.5645 Cl        1 <0>        -0.1001
      3 F1          1.4580   -1.0263    0.4250 F         1 <0>        -0.1682
      4 F2          1.0522    0.1220   -1.3850 F         1 <0>        -0.1682
      5 F3          1.3002    1.1396    0.5307 F         1 <0>        -0.1682
      6 C1          0.7844    0.0403   -0.0641 C.3       1 <0>         0.4154
      7 C2         -0.6945   -0.0868    0.2129 C.3       1 <0>         0.1831
      8 H1         -0.8939   -0.1451    1.2862 H         1 <0>         0.0676
@<TRIPOS>BOND
     1    1    7 1
     2    2    7 1
     3    3    6 1
     4    4    6 1
     5    5    6 1
     6    6    7 1
     7    7    8 1
