@<TRIPOS>MOLECULE
DB02701
   15    15     0     0     0
SMALL
USER_CHARGES

@<TRIPOS>ATOM
      1 O1         -1.9063   -1.9135    0.0111 O.2       1 <0>        -0.2704
      2 N1          1.2719    1.6421    0.0025 N.ar      1 <0>        -0.2625
      3 N2         -2.6567    0.2533   -0.0020 N.am      1 <0>        -0.3253
      4 C1         -0.2671   -0.2223   -0.0016 C.ar      1 <0>         0.0545
      5 C2          0.8004   -1.1131   -0.0025 C.ar      1 <0>        -0.0467
      6 C3          0.0194    1.1333    0.0010 C.ar      1 <0>         0.0396
      7 C4          2.1035   -0.6280   -0.0009 C.ar      1 <0>        -0.0429
      8 C5         -1.6395   -0.6980   -0.0032 C.2       1 <0>         0.2430
      9 C6          2.2841    0.7458    0.0015 C.ar      1 <0>         0.0276
     10 H1          0.6405   -2.1879   -0.0047 H         1 <0>         0.0626
     11 H2         -0.7326    1.9123    0.0024 H         1 <0>         0.0837
     12 H3          2.9513   -1.3037   -0.0016 H         1 <0>         0.0633
     13 H4          3.2806    1.1748    0.0028 H         1 <0>         0.0829
     14 H5         -2.5243    1.2566   -0.0086 H         1 <0>         0.1453
     15 H6         -3.6251   -0.0516    0.0038 H         1 <0>         0.1453
@<TRIPOS>BOND
     1    1    8 2
     2    2    6 ar
     3    2    9 ar
     4    3    8 am
     5    3   14 1
     6    3   15 1
     7    4    5 ar
     8    4    6 ar
     9    4    8 1
    10    5    7 ar
    11    5   10 1
    12    6   11 1
    13    7    9 ar
    14    7   12 1
    15    9   13 1
