@<TRIPOS>MOLECULE
DB02772
   45    46     0     0     0
SMALL
USER_CHARGES

@<TRIPOS>ATOM
      1 O1          1.5022    0.0943    0.9911 O.3       1 <0>        -0.3362
      2 O2          0.7011   -0.6170   -1.0981 O.3       1 <0>        -0.3125
      3 O3         -0.8588    0.4043    0.3198 O.3       1 <0>        -0.3404
      4 O4          3.1624   -1.6445   -1.6958 O.3       1 <0>        -0.3837
      5 O5          4.7371    0.6740   -0.3864 O.3       1 <0>        -0.3864
      6 O6         -1.0123    1.0322   -2.5058 O.3       1 <0>        -0.3841
      7 O7         -3.5317   -1.3244   -1.3669 O.3       1 <0>        -0.3864
      8 O8         -2.9770    2.2093   -0.7501 O.3       1 <0>        -0.3865
      9 O9          1.8711   -2.5588    1.7519 O.3       1 <0>        -0.3896
     10 O10         1.4739    2.7767    1.8206 O.3       1 <0>        -0.3924
     11 O11        -3.8799   -0.4306    2.2034 O.3       1 <0>        -0.3924
     12 C1          1.5351   -0.9590    0.0101 C.3       1 <0>         0.2252
     13 C2          2.9902   -1.0104   -0.4441 C.3       1 <0>         0.1395
     14 C3          3.3409    0.4618   -0.4826 C.3       1 <0>         0.1145
     15 C4          2.6255    0.9698    0.7640 C.3       1 <0>         0.1134
     16 C5         -0.6719   -0.5579   -0.7161 C.3       1 <0>         0.1912
     17 C6         -1.5011   -0.1882   -1.9477 C.3       1 <0>         0.1342
     18 C7         -2.9815   -0.0305   -1.5933 C.3       1 <0>         0.1141
     19 C8         -3.1816    0.8498   -0.3528 C.3       1 <0>         0.1119
     20 C9         -2.2061    0.5286    0.7927 C.3       1 <0>         0.1130
     21 C10         1.0597   -2.2649    0.6275 C.3       1 <0>         0.1009
     22 C11         2.1313    2.3991    0.6222 C.3       1 <0>         0.0730
     23 C12        -2.6137   -0.6862    1.6239 C.3       1 <0>         0.0730
     24 H1          3.6347   -1.5195    0.2832 H         1 <0>         0.0675
     25 H2          2.9813    0.9296   -1.4066 H         1 <0>         0.0648
     26 H3          3.2646    0.8944    1.6527 H         1 <0>         0.0647
     27 H4         -1.0240   -1.5454   -0.4114 H         1 <0>         0.0939
     28 H5         -1.3738   -0.9610   -2.7155 H         1 <0>         0.0671
     29 H6         -3.5071    0.4140   -2.4474 H         1 <0>         0.0648
     30 H7         -4.2187    0.7781   -0.0073 H         1 <0>         0.0647
     31 H8         -2.1918    1.3938    1.4680 H         1 <0>         0.0647
     32 H9          1.1031   -3.0921   -0.0886 H         1 <0>         0.0612
     33 H10         0.0517   -2.2107    1.0407 H         1 <0>         0.0612
     34 H11         1.4104    2.4957   -0.1965 H         1 <0>         0.0584
     35 H12         2.9596    3.0918    0.4475 H         1 <0>         0.0584
     36 H13        -1.8852   -0.8752    2.4199 H         1 <0>         0.0584
     37 H14        -2.6843   -1.6034    1.0353 H         1 <0>         0.0584
     38 H15         4.0891   -1.5181   -1.9617 H         1 <0>         0.2101
     39 H16         4.8835    1.6334   -0.3264 H         1 <0>         0.2100
     40 H17        -0.0632    0.9124   -2.6800 H         1 <0>         0.2101
     41 H18        -4.4760   -1.2107   -1.1652 H         1 <0>         0.2100
     42 H19        -3.1835    2.7732    0.0148 H         1 <0>         0.2100
     43 H20         1.5646   -3.4072    2.1148 H         1 <0>         0.2096
     44 H21         0.7403    2.1536    1.9609 H         1 <0>         0.2095
     45 H22        -3.7901    0.3461    2.7813 H         1 <0>         0.2095
@<TRIPOS>BOND
     1    1   12 1
     2    1   15 1
     3    2   12 1
     4    2   16 1
     5    3   16 1
     6    3   20 1
     7    4   13 1
     8    4   38 1
     9    5   14 1
    10    5   39 1
    11    6   17 1
    12    6   40 1
    13    7   18 1
    14    7   41 1
    15    8   19 1
    16    8   42 1
    17    9   21 1
    18    9   43 1
    19   10   22 1
    20   10   44 1
    21   11   23 1
    22   11   45 1
    23   12   13 1
    24   12   21 1
    25   13   14 1
    26   13   24 1
    27   14   15 1
    28   14   25 1
    29   15   22 1
    30   15   26 1
    31   16   17 1
    32   16   27 1
    33   17   18 1
    34   17   28 1
    35   18   19 1
    36   18   29 1
    37   19   20 1
    38   19   30 1
    39   20   23 1
    40   20   31 1
    41   21   32 1
    42   21   33 1
    43   22   34 1
    44   22   35 1
    45   23   36 1
    46   23   37 1
