@<TRIPOS>MOLECULE
DB02325
   12    11     0     0     0
SMALL
USER_CHARGES

@<TRIPOS>ATOM
      1 O1          0.0001   -1.6339    0.3497 O.3       1 <0>        -0.3923
      2 C1         -0.0000   -0.2192    0.5158 C.3       1 <0>         0.0496
      3 C2          1.2601    0.3584   -0.1104 C.3       1 <0>        -0.0392
      4 C3         -1.2601    0.3583   -0.1104 C.3       1 <0>        -0.0392
      5 H1          0.0001   -0.0155    1.5916 H         1 <0>         0.0588
      6 H2          1.3083    1.4434    0.0226 H         1 <0>         0.0254
      7 H3          2.1507   -0.0897    0.3429 H         1 <0>         0.0254
      8 H4          1.3063    0.1342   -1.1818 H         1 <0>         0.0254
      9 H5         -1.3085    1.4433    0.0226 H         1 <0>         0.0254
     10 H6         -2.1508   -0.0900    0.3430 H         1 <0>         0.0254
     11 H7         -1.3064    0.1341   -1.1818 H         1 <0>         0.0254
     12 H8          0.0003   -1.8234   -0.6041 H         1 <0>         0.2098
@<TRIPOS>BOND
     1    1    2 1
     2    1   12 1
     3    2    3 1
     4    2    4 1
     5    2    5 1
     6    3    6 1
     7    3    7 1
     8    3    8 1
     9    4    9 1
    10    4   10 1
    11    4   11 1
