@<TRIPOS>MOLECULE
DB02703
   85    88     0     0     0
SMALL
USER_CHARGES

@<TRIPOS>ATOM
      1 O1          0.7320    1.8282    1.4100 O.3       1 <0>        -0.3915
      2 O2         -2.4180   -3.6508   -0.0493 O.3       1 <0>        -0.4570
      3 O3          5.7350    2.0281    1.8533 O.3       1 <0>        -0.3915
      4 O4         -5.1965   -1.8465    1.6072 O.3       1 <0>        -0.4773
      5 O5         -5.0133   -2.4710   -0.5672 O.2       1 <0>        -0.2455
      6 O6         -1.4461   -5.4620    1.0052 O.2       1 <0>        -0.2511
      7 C1          1.5707   -0.9459    0.2445 C.3       1 <0>        -0.0203
      8 C2          1.6622    0.4882   -0.4214 C.3       1 <0>        -0.0034
      9 C3          0.0959   -1.5182    0.0041 C.3       1 <0>        -0.0160
     10 C4          3.1469    1.0798   -0.5810 C.3       1 <0>        -0.0232
     11 C5          4.2408    0.1393    0.0307 C.3       1 <0>        -0.0303
     12 C6         -0.9421   -0.5127    0.5793 C.3       1 <0>        -0.0073
     13 C7          2.6308   -1.8280   -0.4706 C.3       1 <0>        -0.0465
     14 C8          0.5417    1.4592    0.0488 C.3       1 <0>         0.0596
     15 C9          4.0778   -1.3292   -0.3848 C.3       1 <0>        -0.0489
     16 C10        -0.8700    0.8488   -0.1097 C.3       1 <0>        -0.0194
     17 C11        -0.2870   -2.8033    0.7918 C.3       1 <0>        -0.0052
     18 C12         3.3293    2.4828    0.0593 C.3       1 <0>        -0.0447
     19 C13         5.6906    0.6799   -0.1695 C.3       1 <0>        -0.0145
     20 C14         1.8891   -0.9068    1.7697 C.3       1 <0>        -0.0587
     21 C15        -2.2063   -1.3315    0.6005 C.2       1 <0>        -0.0159
     22 C16        -1.8298   -2.7697    0.8951 C.3       1 <0>         0.1257
     23 C17        -0.1764   -1.8279   -1.5088 C.3       1 <0>        -0.0584
     24 C18         3.3719    1.2286   -2.1203 C.3       1 <0>        -0.0589
     25 C19         4.7464    3.0540   -0.0834 C.3       1 <0>        -0.0261
     26 C20         5.8223    2.0980    0.4286 C.3       1 <0>         0.0581
     27 C21         6.7503   -0.2476    0.4447 C.3       1 <0>        -0.0598
     28 C22        -3.4442   -0.8988    0.3344 C.2       1 <0>         0.0397
     29 C23        -3.7202    0.5281   -0.0851 C.3       1 <0>        -0.0174
     30 C24        -4.6106   -1.8229    0.3882 C.2       1 <0>         0.3329
     31 C25        -2.1432   -4.9801    0.1226 C.2       1 <0>         0.3045
     32 C26        -5.1944    0.7988   -0.4146 C.3       1 <0>        -0.0303
     33 C27        -2.8271   -5.7853   -0.9405 C.3       1 <0>         0.0333
     34 C28        -5.4278    2.1995   -0.9112 C.2       1 <0>        -0.0850
     35 C29        -5.8187    3.2754   -0.2022 C.2       1 <0>        -0.0796
     36 C30        -6.0175    4.6039   -0.8825 C.3       1 <0>        -0.0440
     37 C31        -6.0788    3.2936    1.2776 C.3       1 <0>        -0.0440
     38 H1          1.3665    0.3117   -1.4615 H         1 <0>         0.0336
     39 H2          4.1096    0.1413    1.1140 H         1 <0>         0.0310
     40 H3         -0.7442   -0.3227    1.6416 H         1 <0>         0.0353
     41 H4          2.3974   -1.8918   -1.5398 H         1 <0>         0.0271
     42 H5          2.5826   -2.8593   -0.0987 H         1 <0>         0.0271
     43 H6          0.5782    2.3761   -0.5503 H         1 <0>         0.0596
     44 H7          4.6068   -1.9625    0.3389 H         1 <0>         0.0268
     45 H8          4.5686   -1.5068   -1.3500 H         1 <0>         0.0268
     46 H9         -1.0960    0.7732   -1.1779 H         1 <0>         0.0296
     47 H10        -1.5442    1.5681    0.3557 H         1 <0>         0.0296
     48 H11         0.1220   -2.7883    1.8070 H         1 <0>         0.0310
     49 H12         0.1201   -3.6906    0.2980 H         1 <0>         0.0310
     50 H13         3.0827    2.4386    1.1254 H         1 <0>         0.0271
     51 H14         2.6382    3.2033   -0.3933 H         1 <0>         0.0271
     52 H15         5.9113    0.7357   -1.2416 H         1 <0>         0.0326
     53 H16         2.4729   -1.7823    2.0757 H         1 <0>         0.0235
     54 H17         2.4369   -0.0137    2.0729 H         1 <0>         0.0235
     55 H18         1.0038   -0.8996    2.4077 H         1 <0>         0.0235
     56 H19        -2.1511   -3.0416    1.9086 H         1 <0>         0.0782
     57 H20        -1.2261   -2.0614   -1.7124 H         1 <0>         0.0235
     58 H21         0.0696   -1.0006   -2.1761 H         1 <0>         0.0235
     59 H22         0.3957   -2.7019   -1.8390 H         1 <0>         0.0235
     60 H23         3.2863    0.2634   -2.6319 H         1 <0>         0.0235
     61 H24         2.6225    1.9017   -2.5544 H         1 <0>         0.0235
     62 H25         4.3491    1.6377   -2.3847 H         1 <0>         0.0235
     63 H26         4.9467    3.3121   -1.1286 H         1 <0>         0.0290
     64 H27         4.7926    3.9922    0.4837 H         1 <0>         0.0290
     65 H28         6.8105    2.5093    0.1935 H         1 <0>         0.0596
     66 H29         6.5337   -0.4711    1.4945 H         1 <0>         0.0233
     67 H30         6.8069   -1.1957   -0.0992 H         1 <0>         0.0233
     68 H31         7.7436    0.2116    0.3927 H         1 <0>         0.0233
     69 H32         0.0481    2.4801    1.6391 H         1 <0>         0.2098
     70 H33         4.8330    1.7843    2.1131 H         1 <0>         0.2098
     71 H34        -3.4545    1.2031    0.7350 H         1 <0>         0.0318
     72 H35        -3.1676    0.7652   -0.9970 H         1 <0>         0.0318
     73 H36        -5.8300    0.5977    0.4549 H         1 <0>         0.0311
     74 H37        -5.5406    0.1208   -1.2055 H         1 <0>         0.0311
     75 H38        -2.4622   -5.4828   -1.9252 H         1 <0>         0.0342
     76 H39        -3.9088   -5.6464   -0.8710 H         1 <0>         0.0342
     77 H40        -2.6010   -6.8454   -0.7949 H         1 <0>         0.0342
     78 H41        -5.9704   -2.4487    1.6311 H         1 <0>         0.2954
     79 H42        -5.2510    2.3266   -1.9786 H         1 <0>         0.0572
     80 H43        -5.8241    4.5553   -1.9593 H         1 <0>         0.0274
     81 H44        -5.3410    5.3528   -0.4575 H         1 <0>         0.0274
     82 H45        -7.0479    4.9482   -0.7461 H         1 <0>         0.0274
     83 H46        -5.8373    2.3470    1.7677 H         1 <0>         0.0274
     84 H47        -7.1336    3.5130    1.4727 H         1 <0>         0.0274
     85 H48        -5.4702    4.0671    1.7579 H         1 <0>         0.0274
@<TRIPOS>BOND
     1    1   14 1
     2    1   69 1
     3    2   22 1
     4    2   31 1
     5    3   26 1
     6    3   70 1
     7    4   30 1
     8    4   78 1
     9    5   30 2
    10    6   31 2
    11    7    8 1
    12    7    9 1
    13    7   13 1
    14    7   20 1
    15    8   10 1
    16    8   14 1
    17    8   38 1
    18    9   12 1
    19    9   17 1
    20    9   23 1
    21   10   11 1
    22   10   18 1
    23   10   24 1
    24   11   15 1
    25   11   19 1
    26   11   39 1
    27   12   16 1
    28   12   21 1
    29   12   40 1
    30   13   15 1
    31   13   41 1
    32   13   42 1
    33   14   16 1
    34   14   43 1
    35   15   44 1
    36   15   45 1
    37   16   46 1
    38   16   47 1
    39   17   22 1
    40   17   48 1
    41   17   49 1
    42   18   25 1
    43   18   50 1
    44   18   51 1
    45   19   26 1
    46   19   27 1
    47   19   52 1
    48   20   53 1
    49   20   54 1
    50   20   55 1
    51   21   22 1
    52   21   28 2
    53   22   56 1
    54   23   57 1
    55   23   58 1
    56   23   59 1
    57   24   60 1
    58   24   61 1
    59   24   62 1
    60   25   26 1
    61   25   63 1
    62   25   64 1
    63   26   65 1
    64   27   66 1
    65   27   67 1
    66   27   68 1
    67   28   29 1
    68   28   30 1
    69   29   32 1
    70   29   71 1
    71   29   72 1
    72   31   33 1
    73   32   34 1
    74   32   73 1
    75   32   74 1
    76   33   75 1
    77   33   76 1
    78   33   77 1
    79   34   35 2
    80   34   79 1
    81   35   36 1
    82   35   37 1
    83   36   80 1
    84   36   81 1
    85   36   82 1
    86   37   83 1
    87   37   84 1
    88   37   85 1
