@<TRIPOS>MOLECULE
DB02959
   28    29     0     0     0
SMALL
USER_CHARGES

@<TRIPOS>ATOM
      1 O1         -3.3555   -2.7115   -0.1855 O.3       1 <0>        -0.5067
      2 O2          3.4313    1.7159   -0.4271 O.co2     1 <0>        -0.5442
      3 O3          2.3685    1.0357   -2.3337 O.co2     1 <0>        -0.5442
      4 N1         -1.2464    2.3324    0.2256 N.pl3     1 <0>        -0.3604
      5 N2          3.4555   -1.2039   -0.0043 N.4       1 <0>         0.2251
      6 C1          1.4610   -0.0348    0.8563 C.3       1 <0>         0.0229
      7 C2          0.2069    0.6901    0.5689 C.2       1 <0>        -0.0165
      8 C3          2.2916   -0.3534   -0.4096 C.3       1 <0>         0.0201
      9 C4         -1.0626    0.1101    0.2925 C.2       1 <0>         0.0065
     10 C5         -1.9566    1.1619    0.0810 C.2       1 <0>         0.0470
     11 C6          0.0620    2.0575    0.5202 C.2       1 <0>         0.0061
     12 C7         -1.5385   -1.2130    0.2016 C.2       1 <0>        -0.0108
     13 C8         -3.3082    0.9559   -0.2179 C.2       1 <0>        -0.0343
     14 C9          2.7378    0.9275   -1.1306 C.2       1 <0>         0.0897
     15 C10        -2.8879   -1.4343   -0.0967 C.2       1 <0>         0.1176
     16 C11        -3.7574   -0.3650   -0.3028 C.2       1 <0>        -0.0182
     17 H1          2.0655    0.5517    1.5618 H         1 <0>         0.0373
     18 H2          1.2276   -0.9710    1.3804 H         1 <0>         0.0373
     19 H3          1.7042   -0.9762   -1.0951 H         1 <0>         0.0918
     20 H4          0.7693    2.8613    0.6700 H         1 <0>         0.0810
     21 H5         -1.6356    3.2601    0.1283 H         1 <0>         0.1653
     22 H6          3.1469   -2.0758    0.4460 H         1 <0>         0.2001
     23 H7          4.0707   -0.7121    0.6575 H         1 <0>         0.2001
     24 H8          4.0252   -1.4659   -0.8197 H         1 <0>         0.2001
     25 H9         -0.8632   -2.0494    0.3603 H         1 <0>         0.0661
     26 H10        -3.9857    1.7877   -0.3786 H         1 <0>         0.0639
     27 H11        -4.8034   -0.5532   -0.5337 H         1 <0>         0.0655
     28 H12        -2.6229   -3.3284   -0.0150 H         1 <0>         0.2921
@<TRIPOS>BOND
     1    1   15 1
     2    1   28 1
     3    2   14 2
     4    3   14 1
     5    4   10 1
     6    4   11 2
     7    4   21 1
     8    5    8 1
     9    5   22 1
    10    5   23 1
    11    5   24 1
    12    6    7 1
    13    6    8 1
    14    6   17 1
    15    6   18 1
    16    7    9 2
    17    7   11 1
    18    8   14 1
    19    8   19 1
    20    9   10 1
    21    9   12 2
    22   10   13 2
    23   11   20 1
    24   12   15 1
    25   12   25 1
    26   13   16 1
    27   13   26 1
    28   15   16 2
    29   16   27 1
