@<TRIPOS>MOLECULE
DB02893
   20    19     0     0     0
SMALL
USER_CHARGES

@<TRIPOS>ATOM
      1 S1         -1.7148    1.3925    0.5823 S.3       1 <0>        -0.1641
      2 O1          1.8523    1.6900    0.9949 O.3       1 <0>        -0.4795
      3 O2          3.1475    0.4001   -0.3457 O.2       1 <0>        -0.2493
      4 N1          1.6506   -1.7937    0.3938 N.3       1 <0>        -0.3184
      5 C1          0.0215   -0.3612   -0.7396 C.3       1 <0>        -0.0183
      6 C2          1.0095   -0.4754    0.4301 C.3       1 <0>         0.1040
      7 C3         -0.6977    0.9848   -0.8673 C.3       1 <0>        -0.0047
      8 C4          2.1231    0.5495    0.3087 C.2       1 <0>         0.3217
      9 C5         -2.8283   -0.0298    0.5279 C.3       1 <0>        -0.0181
     10 H1          0.5697   -0.5103   -1.6814 H         1 <0>         0.0293
     11 H2         -0.7060   -1.1806   -0.6997 H         1 <0>         0.0293
     12 H3          0.5208   -0.3678    1.4031 H         1 <0>         0.0574
     13 H4         -1.3443    0.9751   -1.7515 H         1 <0>         0.0377
     14 H5          0.0222    1.7952   -1.0189 H         1 <0>         0.0377
     15 H6          2.0823   -1.9451   -0.5178 H         1 <0>         0.1190
     16 H7          0.9395   -2.5184    0.4873 H         1 <0>         0.1190
     17 H8         -3.2218   -0.1825   -0.4805 H         1 <0>         0.0340
     18 H9         -3.6722    0.1592    1.1976 H         1 <0>         0.0340
     19 H10        -2.3236   -0.9341    0.8760 H         1 <0>         0.0340
     20 H11         2.5697    2.3524    0.9009 H         1 <0>         0.2951
@<TRIPOS>BOND
     1    1    7 1
     2    1    9 1
     3    2    8 1
     4    2   20 1
     5    3    8 2
     6    4    6 1
     7    4   15 1
     8    4   16 1
     9    5    6 1
    10    5    7 1
    11    5   10 1
    12    5   11 1
    13    6    8 1
    14    6   12 1
    15    7   13 1
    16    7   14 1
    17    9   17 1
    18    9   18 1
    19    9   19 1
