@<TRIPOS>MOLECULE
DB02659
   69    72     0     0     0
SMALL
USER_CHARGES

@<TRIPOS>ATOM
      1 O1         -0.5404    1.7154    1.3600 O.3       1 <0>        -0.3912
      2 O2          2.0678   -2.2509    1.5803 O.3       1 <0>        -0.3915
      3 O3          5.6138    1.0783    2.5187 O.3       1 <0>        -0.3918
      4 O4         -7.5296    1.0757   -1.0562 O.3       1 <0>        -0.4806
      5 O5         -6.5677   -0.9813   -1.0566 O.2       1 <0>        -0.2510
      6 C1         -1.2420   -0.0579   -0.2003 C.3       1 <0>         0.0001
      7 C2         -0.2747   -1.1242    0.3650 C.3       1 <0>        -0.0276
      8 C3          1.0822   -1.1504   -0.3561 C.3       1 <0>        -0.0081
      9 C4          1.7577    0.2557   -0.2175 C.3       1 <0>        -0.0276
     10 C5          3.1603    0.3021   -0.9392 C.3       1 <0>        -0.0257
     11 C6         -2.4818   -0.3689    0.6789 C.3       1 <0>        -0.0304
     12 C7         -0.6117    1.3373   -0.0145 C.3       1 <0>         0.0614
     13 C8          0.7989    1.4098   -0.6368 C.3       1 <0>        -0.0226
     14 C9          4.0729   -0.8347   -0.3694 C.3       1 <0>        -0.0307
     15 C10        -1.1143   -2.4008    0.3824 C.3       1 <0>        -0.0490
     16 C11         1.9943   -2.2812    0.1582 C.3       1 <0>         0.0589
     17 C12        -2.5388   -1.9138    0.7022 C.3       1 <0>        -0.0491
     18 C13         3.4004   -2.2204   -0.4447 C.3       1 <0>        -0.0232
     19 C14         3.8872    1.6667   -0.7500 C.3       1 <0>        -0.0448
     20 C15        -1.5706   -0.2578   -1.7054 C.3       1 <0>        -0.0567
     21 C16        -3.7956    0.2661    0.2461 C.3       1 <0>        -0.0400
     22 C17         4.5811   -0.5387    1.0576 C.3       1 <0>        -0.0234
     23 C18         3.0096    0.1144   -2.4729 C.3       1 <0>        -0.0590
     24 C19         4.3485    1.9329    0.6763 C.3       1 <0>        -0.0263
     25 C20         5.2666    0.8200    1.1624 C.3       1 <0>         0.0555
     26 C21        -4.9339   -0.1716    1.1905 C.3       1 <0>        -0.0401
     27 C22        -3.6489    1.7905    0.1911 C.3       1 <0>        -0.0621
     28 C23        -6.2824    0.4775    0.8726 C.3       1 <0>         0.0450
     29 C24        -6.7882    0.0837   -0.4970 C.2       1 <0>         0.3047
     30 H1         -0.0815   -0.8733    1.4197 H         1 <0>         0.0310
     31 H2          0.9051   -1.3562   -1.4163 H         1 <0>         0.0331
     32 H3          1.9352    0.4227    0.8522 H         1 <0>         0.0310
     33 H4         -2.2735   -0.0482    1.7107 H         1 <0>         0.0310
     34 H5         -1.1866    2.1158   -0.5153 H         1 <0>         0.0599
     35 H6          1.2464    2.3666   -0.3453 H         1 <0>         0.0293
     36 H7          0.6976    1.4277   -1.7263 H         1 <0>         0.0293
     37 H8          4.9722   -0.8914   -1.0006 H         1 <0>         0.0308
     38 H9         -0.7604   -3.1117    1.1359 H         1 <0>         0.0268
     39 H10        -1.0929   -2.9098   -0.5876 H         1 <0>         0.0268
     40 H11         1.5556   -3.2510   -0.1027 H         1 <0>         0.0596
     41 H12        -3.2371   -2.3167   -0.0404 H         1 <0>         0.0268
     42 H13        -2.8582   -2.2748    1.6862 H         1 <0>         0.0268
     43 H14         3.3415   -2.5264   -1.4963 H         1 <0>         0.0293
     44 H15         4.0429   -2.9568    0.0543 H         1 <0>         0.0293
     45 H16         3.2636    2.4985   -1.0943 H         1 <0>         0.0271
     46 H17         4.7772    1.6888   -1.3951 H         1 <0>         0.0271
     47 H18        -2.2227    0.5363   -2.0826 H         1 <0>         0.0236
     48 H19        -0.6781   -0.2412   -2.3365 H         1 <0>         0.0236
     49 H20        -2.0760   -1.2081   -1.9029 H         1 <0>         0.0236
     50 H21        -4.0570   -0.0786   -0.7610 H         1 <0>         0.0301
     51 H22         3.7821   -0.5662    1.8007 H         1 <0>         0.0293
     52 H23         5.2878   -1.3185    1.3701 H         1 <0>         0.0293
     53 H24         3.9929    0.0657   -2.9561 H         1 <0>         0.0235
     54 H25         2.4807   -0.8020   -2.7445 H         1 <0>         0.0235
     55 H26         2.4750    0.9526   -2.9312 H         1 <0>         0.0235
     56 H27         4.8803    2.8916    0.7187 H         1 <0>         0.0290
     57 H28         3.4916    2.0463    1.3510 H         1 <0>         0.0290
     58 H29         6.1935    0.8092    0.5768 H         1 <0>         0.0593
     59 H30        -0.1580    2.6083    1.4023 H         1 <0>         0.2098
     60 H31        -5.0559   -1.2606    1.1568 H         1 <0>         0.0273
     61 H32        -4.6691    0.0824    2.2248 H         1 <0>         0.0273
     62 H33         1.9320   -1.3477    1.9032 H         1 <0>         0.2098
     63 H34        -3.1676    2.1927    1.0872 H         1 <0>         0.0233
     64 H35        -3.1132    2.1065   -0.7035 H         1 <0>         0.0233
     65 H36        -4.6088    2.3008    0.0900 H         1 <0>         0.0233
     66 H37         6.0627    1.9405    2.5484 H         1 <0>         0.2098
     67 H38        -7.0270    0.1199    1.5943 H         1 <0>         0.0378
     68 H39        -6.2554    1.5644    0.9765 H         1 <0>         0.0378
     69 H40        -7.8575    0.8286   -1.9471 H         1 <0>         0.2951
@<TRIPOS>BOND
     1    1   12 1
     2    1   59 1
     3    2   16 1
     4    2   62 1
     5    3   25 1
     6    3   66 1
     7    4   29 1
     8    4   69 1
     9    5   29 2
    10    6    7 1
    11    6   11 1
    12    6   12 1
    13    6   20 1
    14    7    8 1
    15    7   15 1
    16    7   30 1
    17    8    9 1
    18    8   16 1
    19    8   31 1
    20    9   10 1
    21    9   13 1
    22    9   32 1
    23   10   14 1
    24   10   19 1
    25   10   23 1
    26   11   17 1
    27   11   21 1
    28   11   33 1
    29   12   13 1
    30   12   34 1
    31   13   35 1
    32   13   36 1
    33   14   18 1
    34   14   22 1
    35   14   37 1
    36   15   17 1
    37   15   38 1
    38   15   39 1
    39   16   18 1
    40   16   40 1
    41   17   41 1
    42   17   42 1
    43   18   43 1
    44   18   44 1
    45   19   24 1
    46   19   45 1
    47   19   46 1
    48   20   47 1
    49   20   48 1
    50   20   49 1
    51   21   26 1
    52   21   27 1
    53   21   50 1
    54   22   25 1
    55   22   51 1
    56   22   52 1
    57   23   53 1
    58   23   54 1
    59   23   55 1
    60   24   25 1
    61   24   56 1
    62   24   57 1
    63   25   58 1
    64   26   28 1
    65   26   60 1
    66   26   61 1
    67   27   63 1
    68   27   64 1
    69   27   65 1
    70   28   29 1
    71   28   67 1
    72   28   68 1
