@<TRIPOS>MOLECULE
DB02362
   17    17     0     0     0
SMALL
USER_CHARGES

@<TRIPOS>ATOM
      1 O1         -3.1880   -0.8841   -0.0005 O.3       1 <0>        -0.4771
      2 O2         -3.1779    1.3889   -0.0001 O.2       1 <0>        -0.2451
      3 N1          3.0753   -0.1903   -0.0005 N.pl3     1 <0>        -0.3580
      4 C1         -1.1075    0.1899    0.0007 C.ar      1 <0>         0.0589
      5 C2          1.6707   -0.0628   -0.0002 C.ar      1 <0>         0.0246
      6 C3         -0.3037    1.3297    0.0004 C.ar      1 <0>        -0.0460
      7 C4         -0.5223   -1.0764    0.0006 C.ar      1 <0>        -0.0460
      8 C5          1.0854    1.2034   -0.0000 C.ar      1 <0>        -0.0403
      9 C6          0.8668   -1.2028    0.0002 C.ar      1 <0>        -0.0403
     10 C7         -2.5558    0.3215    0.0004 C.2       1 <0>         0.3368
     11 H1         -0.7402    2.3252    0.0004 H         1 <0>         0.0626
     12 H2         -1.1104   -1.9899    0.0008 H         1 <0>         0.0626
     13 H3          1.7012    2.0992   -0.0004 H         1 <0>         0.0636
     14 H4          1.3114   -2.1948    0.0001 H         1 <0>         0.0636
     15 H5          3.5002   -1.1080   -0.0003 H         1 <0>         0.1423
     16 H6          3.6586    0.6358   -0.0002 H         1 <0>         0.1423
     17 H7         -4.1639   -0.7843   -0.0013 H         1 <0>         0.2954
@<TRIPOS>BOND
     1    1   10 1
     2    1   17 1
     3    2   10 2
     4    3    5 1
     5    3   15 1
     6    3   16 1
     7    4    6 ar
     8    4    7 ar
     9    4   10 1
    10    5    8 ar
    11    5    9 ar
    12    6    8 ar
    13    6   11 1
    14    7    9 ar
    15    7   12 1
    16    8   13 1
    17    9   14 1
