@<TRIPOS>MOLECULE
DB02513
   25    25     0     0     0
SMALL
USER_CHARGES

@<TRIPOS>ATOM
      1 O1         -0.1507   -2.5291   -0.2404 O.3       1 <0>        -0.5065
      2 C1         -1.8964   -0.2754   -0.0552 C.3       1 <0>        -0.0181
      3 C2         -0.4085   -0.1545   -0.0397 C.ar      1 <0>        -0.0034
      4 C3         -2.5312    0.4403   -1.2618 C.3       1 <0>        -0.0585
      5 C4         -2.5403    0.2271    1.2502 C.3       1 <0>        -0.0585
      6 C5          0.4000   -1.2875   -0.1329 C.ar      1 <0>         0.1205
      7 C6          0.1718    1.1092    0.0695 C.ar      1 <0>        -0.0546
      8 C7          2.3688    0.1071   -0.0077 C.ar      1 <0>        -0.0470
      9 C8          1.7885   -1.1566   -0.1170 C.ar      1 <0>        -0.0170
     10 C9          1.5605    1.2401    0.0855 C.ar      1 <0>        -0.0583
     11 C10         3.8534    0.2472    0.0095 C.3       1 <0>        -0.0396
     12 H1         -2.2087   -1.3192   -0.1582 H         1 <0>         0.0345
     13 H2         -2.3797    1.5244   -1.2227 H         1 <0>         0.0235
     14 H3         -3.6110    0.2578   -1.2928 H         1 <0>         0.0235
     15 H4         -2.1017    0.0749   -2.2011 H         1 <0>         0.0235
     16 H5         -2.1197   -0.2949    2.1168 H         1 <0>         0.0235
     17 H6         -3.6205    0.0450    1.2405 H         1 <0>         0.0235
     18 H7         -2.3866    1.3015    1.3974 H         1 <0>         0.0235
     19 H8         -0.4366    2.0063    0.1430 H         1 <0>         0.0622
     20 H9          2.4138   -2.0432   -0.1917 H         1 <0>         0.0657
     21 H10         2.0008    2.2301    0.1692 H         1 <0>         0.0620
     22 H11         4.3269   -0.6257    0.4716 H         1 <0>         0.0278
     23 H12         4.2326    0.3530   -1.0118 H         1 <0>         0.0278
     24 H13         4.1616    1.1232    0.5904 H         1 <0>         0.0278
     25 H14        -0.8871   -2.6009    0.3893 H         1 <0>         0.2921
@<TRIPOS>BOND
     1    1    6 1
     2    1   25 1
     3    2    3 1
     4    2    4 1
     5    2    5 1
     6    2   12 1
     7    3    6 ar
     8    3    7 ar
     9    4   13 1
    10    4   14 1
    11    4   15 1
    12    5   16 1
    13    5   17 1
    14    5   18 1
    15    6    9 ar
    16    7   10 ar
    17    7   19 1
    18    8    9 ar
    19    8   10 ar
    20    8   11 1
    21    9   20 1
    22   10   21 1
    23   11   22 1
    24   11   23 1
    25   11   24 1
