@<TRIPOS>MOLECULE
DB02266
   30    31     0     0     0
SMALL
USER_CHARGES

@<TRIPOS>ATOM
      1 F1         -4.9762    1.5124    0.9935 F         1 <0>        -0.1659
      2 F2         -3.2937    1.6348    2.3649 F         1 <0>        -0.1659
      3 F3         -3.2323    2.7117    0.4705 F         1 <0>        -0.1659
      4 O1          4.2446   -1.9664    0.7479 O.3       1 <0>        -0.4771
      5 O2          2.0988   -2.3075    1.4156 O.2       1 <0>        -0.2451
      6 N1          0.3832   -0.9766   -0.3201 N.pl3     1 <0>        -0.3138
      7 C1         -1.0176   -0.8509   -0.2822 C.ar      1 <0>         0.0319
      8 C2          1.4276   -0.0257   -0.3410 C.ar      1 <0>         0.0454
      9 C3         -2.9951    0.3745    0.3808 C.ar      1 <0>         0.0566
     10 C4         -1.6063    0.2495    0.3447 C.ar      1 <0>        -0.0289
     11 C5          2.6707   -0.3147    0.2216 C.ar      1 <0>         0.0799
     12 C6         -1.8249   -1.8256   -0.8729 C.ar      1 <0>        -0.0405
     13 C7         -3.7987   -0.6005   -0.2098 C.ar      1 <0>        -0.0500
     14 C8          1.2026    1.2162   -0.9350 C.ar      1 <0>        -0.0397
     15 C9         -3.2136   -1.7006   -0.8368 C.ar      1 <0>        -0.0595
     16 C10         3.6889    0.6381    0.1904 C.ar      1 <0>        -0.0460
     17 C11        -3.6213    1.5501    1.0512 C.3       1 <0>         0.4175
     18 C12         2.2208    2.1689   -0.9663 C.ar      1 <0>        -0.0600
     19 C13         3.4641    1.8800   -0.4036 C.ar      1 <0>        -0.0609
     20 C14         2.9381   -1.6025    0.8496 C.2       1 <0>         0.3386
     21 H1          0.7033   -1.9390   -0.3787 H         1 <0>         0.1522
     22 H2         -0.9977    1.0081    0.8310 H         1 <0>         0.0642
     23 H3         -1.3814   -2.6872   -1.3658 H         1 <0>         0.0636
     24 H4         -4.8823   -0.5227   -0.1932 H         1 <0>         0.0623
     25 H5          0.2536    1.4624   -1.4034 H         1 <0>         0.0636
     26 H6         -3.8392   -2.4598   -1.2971 H         1 <0>         0.0618
     27 H7          4.6643    0.4496    0.6313 H         1 <0>         0.0626
     28 H8          2.0476    3.1342   -1.4331 H         1 <0>         0.0618
     29 H9          4.2560    2.6230   -0.4266 H         1 <0>         0.0618
     30 H10         4.4162   -2.8340    1.1724 H         1 <0>         0.2954
@<TRIPOS>BOND
     1    1   17 1
     2    2   17 1
     3    3   17 1
     4    4   20 1
     5    4   30 1
     6    5   20 2
     7    6    7 1
     8    6    8 1
     9    6   21 1
    10    7   10 ar
    11    7   12 ar
    12    8   11 ar
    13    8   14 ar
    14    9   10 ar
    15    9   13 ar
    16    9   17 1
    17   10   22 1
    18   11   16 ar
    19   11   20 1
    20   12   15 ar
    21   12   23 1
    22   13   15 ar
    23   13   24 1
    24   14   18 ar
    25   14   25 1
    26   15   26 1
    27   16   19 ar
    28   16   27 1
    29   18   19 ar
    30   18   28 1
    31   19   29 1
