@<TRIPOS>MOLECULE
DB02789
   55    58     0     0     0
SMALL
USER_CHARGES

@<TRIPOS>ATOM
      1 O1          5.4765   -1.0993    0.6785 O.3       1 <0>        -0.3915
      2 O2         -5.4549   -0.0766    1.0823 O.2       1 <0>        -0.2974
      3 C1         -2.3247   -0.1464    0.1363 C.3       1 <0>        -0.0195
      4 C2         -1.4895    1.0477   -0.3677 C.3       1 <0>        -0.0316
      5 C3         -0.0404    1.0289    0.1304 C.3       1 <0>        -0.0306
      6 C4          0.6438   -0.2932   -0.3223 C.3       1 <0>        -0.0285
      7 C5          2.1422   -0.3831    0.1783 C.3       1 <0>        -0.0078
      8 C6         -1.6827   -1.4262   -0.4175 C.3       1 <0>        -0.0464
      9 C7         -3.6880    0.2186   -0.4919 C.3       1 <0>         0.0229
     10 C8         -0.2115   -1.5474    0.0158 C.3       1 <0>        -0.0486
     11 C9         -2.3642    2.2545   -0.0466 C.3       1 <0>        -0.0488
     12 C10        -3.7942    1.7478   -0.3095 C.3       1 <0>        -0.0427
     13 C11         0.7352    2.2373   -0.4117 C.3       1 <0>        -0.0311
     14 C12         2.8631    0.9596    0.0120 C.2       1 <0>        -0.0648
     15 C13        -2.4281   -0.2298    1.6814 C.3       1 <0>        -0.0587
     16 C14         2.8694   -1.5023   -0.6404 C.3       1 <0>        -0.0413
     17 C15         2.2166    2.1049   -0.2698 C.2       1 <0>        -0.0839
     18 C16         2.1991   -0.7428    1.6845 C.3       1 <0>        -0.0556
     19 C17         4.3733    0.9755    0.1537 C.3       1 <0>        -0.0051
     20 C18         4.1592   -1.0609   -1.3402 C.3       1 <0>        -0.0258
     21 C19        -4.8552   -0.5093    0.0994 C.2       1 <0>         0.1339
     22 C20         5.0655   -0.2695   -0.4078 C.3       1 <0>         0.0590
     23 C21        -5.2602   -1.7949   -0.5695 C.3       1 <0>        -0.0058
     24 H1         -1.4421    0.9913   -1.4687 H         1 <0>         0.0309
     25 H2         -0.0302    1.0906    1.2245 H         1 <0>         0.0309
     26 H3          0.6810   -0.2485   -1.4232 H         1 <0>         0.0312
     27 H4         -1.7297   -1.4327   -1.5141 H         1 <0>         0.0271
     28 H5         -2.2270   -2.3134   -0.0761 H         1 <0>         0.0271
     29 H6         -3.6765    0.0169   -1.5720 H         1 <0>         0.0383
     30 H7         -0.1886   -1.7496    1.0904 H         1 <0>         0.0268
     31 H8          0.2158   -2.4332   -0.4677 H         1 <0>         0.0268
     32 H9         -2.1257    3.1172   -0.6769 H         1 <0>         0.0268
     33 H10        -2.2519    2.5654    0.9979 H         1 <0>         0.0268
     34 H11        -4.4534    2.0573    0.5080 H         1 <0>         0.0272
     35 H12        -4.1945    2.2010   -1.2242 H         1 <0>         0.0272
     36 H13         0.4105    3.1390    0.1215 H         1 <0>         0.0310
     37 H14         0.5106    2.3988   -1.4733 H         1 <0>         0.0310
     38 H15        -2.9768   -1.1288    1.9852 H         1 <0>         0.0235
     39 H16        -1.4510   -0.2812    2.1688 H         1 <0>         0.0235
     40 H17        -2.9485    0.6308    2.1139 H         1 <0>         0.0235
     41 H18         2.2148   -1.9134   -1.4186 H         1 <0>         0.0274
     42 H19         3.1004   -2.3536    0.0136 H         1 <0>         0.0274
     43 H20         2.7857    3.0224   -0.4017 H         1 <0>         0.0572
     44 H21         1.8101   -1.7470    1.8805 H         1 <0>         0.0238
     45 H22         3.2248   -0.7355    2.0688 H         1 <0>         0.0238
     46 H23         1.6259   -0.0360    2.2937 H         1 <0>         0.0238
     47 H24         4.7723    1.8465   -0.3831 H         1 <0>         0.0335
     48 H25         4.6266    1.1179    1.2115 H         1 <0>         0.0335
     49 H26         4.6820   -1.9567   -1.6964 H         1 <0>         0.0290
     50 H27         3.9135   -0.4581   -2.2234 H         1 <0>         0.0290
     51 H28         5.9765    0.0211   -0.9434 H         1 <0>         0.0596
     52 H29        -5.4517   -1.6166   -1.6305 H         1 <0>         0.0306
     53 H30        -4.4796   -2.5469   -0.4471 H         1 <0>         0.0306
     54 H31        -6.1806   -2.1686   -0.1113 H         1 <0>         0.0306
     55 H32         6.1070   -0.5895    1.2154 H         1 <0>         0.2098
@<TRIPOS>BOND
     1    1   22 1
     2    1   55 1
     3    2   21 2
     4    3    4 1
     5    3    8 1
     6    3    9 1
     7    3   15 1
     8    4    5 1
     9    4   11 1
    10    4   24 1
    11    5    6 1
    12    5   13 1
    13    5   25 1
    14    6    7 1
    15    6   10 1
    16    6   26 1
    17    7   14 1
    18    7   16 1
    19    7   18 1
    20    8   10 1
    21    8   27 1
    22    8   28 1
    23    9   12 1
    24    9   21 1
    25    9   29 1
    26   10   30 1
    27   10   31 1
    28   11   12 1
    29   11   32 1
    30   11   33 1
    31   12   34 1
    32   12   35 1
    33   13   17 1
    34   13   36 1
    35   13   37 1
    36   14   17 2
    37   14   19 1
    38   15   38 1
    39   15   39 1
    40   15   40 1
    41   16   20 1
    42   16   41 1
    43   16   42 1
    44   17   43 1
    45   18   44 1
    46   18   45 1
    47   18   46 1
    48   19   22 1
    49   19   47 1
    50   19   48 1
    51   20   22 1
    52   20   49 1
    53   20   50 1
    54   21   23 1
    55   22   51 1
    56   23   52 1
    57   23   53 1
    58   23   54 1
