@<TRIPOS>MOLECULE
DB02546
   39    39     0     0     0
SMALL
USER_CHARGES

@<TRIPOS>ATOM
      1 O1          2.4180   -1.5113    0.1319 O.2       1 <0>        -0.2755
      2 O2         -7.1254    0.1407   -1.3606 O.2       1 <0>        -0.2737
      3 O3         -8.2198    1.0350    0.9499 O.3       1 <0>        -0.2952
      4 N1          3.4079    0.6046   -0.1035 N.am      1 <0>        -0.2855
      5 N2         -7.0138    0.3217    0.9415 N.am      1 <0>        -0.1975
      6 C1         -1.5148    0.2589   -0.3200 C.3       1 <0>        -0.0526
      7 C2         -2.7143   -0.6886   -0.2420 C.3       1 <0>        -0.0526
      8 C3         -0.1939   -0.5077   -0.2032 C.3       1 <0>        -0.0448
      9 C4         -4.0358    0.0806   -0.3274 C.3       1 <0>        -0.0447
     10 C5          1.0214    0.4180   -0.2430 C.3       1 <0>         0.0243
     11 C6         -5.2527   -0.8372   -0.2219 C.3       1 <0>         0.0259
     12 C7          2.3517   -0.3010   -0.0555 C.2       1 <0>         0.2172
     13 C8         -6.5615   -0.0775   -0.2903 C.2       1 <0>         0.2354
     14 C9          4.7893    0.3264    0.0288 C.ar      1 <0>         0.0334
     15 C10         5.7191    1.3640   -0.0399 C.ar      1 <0>        -0.0405
     16 C11         5.2210   -0.9849    0.2285 C.ar      1 <0>        -0.0405
     17 C12         7.0806    1.0903    0.0907 C.ar      1 <0>        -0.0600
     18 C13         6.5824   -1.2586    0.3592 C.ar      1 <0>        -0.0600
     19 C14         7.5123   -0.2209    0.2905 C.ar      1 <0>        -0.0616
     20 H1         -1.5381    0.8083   -1.2688 H         1 <0>         0.0265
     21 H2         -1.5793    1.0003    0.4858 H         1 <0>         0.0265
     22 H3         -2.6615   -1.4199   -1.0575 H         1 <0>         0.0265
     23 H4         -2.6792   -1.2496    0.6998 H         1 <0>         0.0265
     24 H5         -0.1198   -1.2421   -1.0150 H         1 <0>         0.0270
     25 H6         -0.1859   -1.0772    0.7347 H         1 <0>         0.0270
     26 H7         -4.0803    0.6353   -1.2731 H         1 <0>         0.0270
     27 H8         -4.0766    0.8304    0.4728 H         1 <0>         0.0270
     28 H9          1.0502    0.9448   -1.2046 H         1 <0>         0.0358
     29 H10         0.9339    1.1727    0.5485 H         1 <0>         0.0358
     30 H11        -5.2474   -1.5698   -1.0378 H         1 <0>         0.0359
     31 H12        -5.2140   -1.4084    0.7136 H         1 <0>         0.0359
     32 H13         3.1784    1.5850   -0.2521 H         1 <0>         0.1548
     33 H14        -6.6285    0.0568    1.8408 H         1 <0>         0.1822
     34 H15         5.3962    2.3902   -0.1950 H         1 <0>         0.0636
     35 H16         4.5634   -1.8404    0.2903 H         1 <0>         0.0636
     36 H17         7.8047    1.8981    0.0372 H         1 <0>         0.0618
     37 H18         6.9201   -2.2793    0.5143 H         1 <0>         0.0618
     38 H19         8.5723   -0.4341    0.3922 H         1 <0>         0.0618
     39 H20        -7.8805    1.9460    0.9599 H         1 <0>         0.2414
@<TRIPOS>BOND
     1    1   12 2
     2    2   13 2
     3    3    5 1
     4    3   39 1
     5    4   12 am
     6    4   14 1
     7    4   32 1
     8    5   13 am
     9    5   33 1
    10    6    7 1
    11    6    8 1
    12    6   20 1
    13    6   21 1
    14    7    9 1
    15    7   22 1
    16    7   23 1
    17    8   10 1
    18    8   24 1
    19    8   25 1
    20    9   11 1
    21    9   26 1
    22    9   27 1
    23   10   12 1
    24   10   28 1
    25   10   29 1
    26   11   13 1
    27   11   30 1
    28   11   31 1
    29   14   15 ar
    30   14   16 ar
    31   15   17 ar
    32   15   34 1
    33   16   18 ar
    34   16   35 1
    35   17   19 ar
    36   17   36 1
    37   18   19 ar
    38   18   37 1
    39   19   38 1
