@<TRIPOS>MOLECULE
DB02925
   43    45     0     0     0
SMALL
USER_CHARGES

@<TRIPOS>ATOM
      1 S1          0.5843   -3.2235    1.4133 S.o2      1 <0>         0.0595
      2 O1         -0.7722   -0.5574    1.2404 O.3       1 <0>        -0.4522
      3 O2          1.6705   -4.0800    1.8647 O.2       1 <0>        -0.1531
      4 O3         -0.5118   -2.9046    2.3155 O.2       1 <0>        -0.1531
      5 O4          4.9435    0.7097   -0.9665 O.3       1 <0>        -0.4771
      6 O5          5.3001   -1.4990   -0.5658 O.2       1 <0>        -0.2451
      7 N1          0.3305    1.8507    0.3071 N.pl3     1 <0>        -0.3270
      8 N2         -0.0611   -3.8636   -0.0327 N.pl3     1 <0>        -0.2034
      9 C1          0.5350    2.9215   -0.6654 C.3       1 <0>         0.0123
     10 C2         -0.7451    2.1702    1.2425 C.3       1 <0>         0.0123
     11 C3         -0.6850    3.8208   -0.4792 C.3       1 <0>        -0.0358
     12 C4         -1.0165    3.6521    0.9933 C.3       1 <0>        -0.0358
     13 C5          1.0613    0.6825    0.3375 C.ar      1 <0>         0.0753
     14 C6          0.5217   -0.5502    0.8069 C.ar      1 <0>         0.1756
     15 C7          2.4142    0.6431   -0.1050 C.ar      1 <0>        -0.0230
     16 C8          1.2741   -1.7246    0.8313 C.ar      1 <0>         0.1496
     17 C9          3.1665   -0.5311   -0.0806 C.ar      1 <0>         0.0627
     18 C10         2.5964   -1.7150    0.3874 C.ar      1 <0>        -0.0176
     19 C11         4.5453   -0.5212   -0.5432 C.2       1 <0>         0.3369
     20 C12        -1.7581   -0.8271    0.3086 C.ar      1 <0>         0.1286
     21 C13        -1.3969   -1.0747   -1.0043 C.ar      1 <0>        -0.0193
     22 C14        -3.0820   -0.8425    0.7115 C.ar      1 <0>        -0.0193
     23 C15        -2.3913   -1.3460   -1.9441 C.ar      1 <0>        -0.0583
     24 C16        -4.0763   -1.1139   -0.2283 C.ar      1 <0>        -0.0583
     25 C17        -3.7309   -1.3656   -1.5562 C.ar      1 <0>        -0.0615
     26 H1          0.5899    2.5454   -1.6924 H         1 <0>         0.0464
     27 H2          1.4513    3.4758   -0.4328 H         1 <0>         0.0464
     28 H3         -0.4668    1.9924    2.2864 H         1 <0>         0.0464
     29 H4         -1.6677    1.6412    1.0045 H         1 <0>         0.0464
     30 H5         -1.5173    3.4552   -1.0930 H         1 <0>         0.0281
     31 H6         -0.4857    4.8597   -0.7560 H         1 <0>         0.0281
     32 H7         -0.3383    4.2641    1.6003 H         1 <0>         0.0281
     33 H8         -2.0439    3.9387    1.2349 H         1 <0>         0.0281
     34 H9          2.8545    1.5721   -0.4608 H         1 <0>         0.0645
     35 H10         3.1839   -2.6294    0.3968 H         1 <0>         0.0646
     36 H11         0.4135   -4.6750   -0.4473 H         1 <0>         0.1442
     37 H12        -1.0839   -3.8915   -0.1264 H         1 <0>         0.1442
     38 H13        -0.3796   -1.0717   -1.3786 H         1 <0>         0.0654
     39 H14        -3.3521   -0.6465    1.7449 H         1 <0>         0.0654
     40 H15        -2.1235   -1.5412   -2.9785 H         1 <0>         0.0619
     41 H16        -5.1194   -1.1291    0.0738 H         1 <0>         0.0619
     42 H17         5.8741    0.7056   -1.2768 H         1 <0>         0.2954
     43 H18        -4.5052   -1.5768   -2.2879 H         1 <0>         0.0618
@<TRIPOS>BOND
     1    1    3 2
     2    1    4 2
     3    1    8 1
     4    1   16 1
     5    2   14 1
     6    2   20 1
     7    5   19 1
     8    5   42 1
     9    6   19 2
    10    7    9 1
    11    7   10 1
    12    7   13 1
    13    8   36 1
    14    8   37 1
    15    9   11 1
    16    9   26 1
    17    9   27 1
    18   10   12 1
    19   10   28 1
    20   10   29 1
    21   11   12 1
    22   11   30 1
    23   11   31 1
    24   12   32 1
    25   12   33 1
    26   13   14 ar
    27   13   15 ar
    28   14   16 ar
    29   15   17 ar
    30   15   34 1
    31   16   18 ar
    32   17   18 ar
    33   17   19 1
    34   18   35 1
    35   20   21 ar
    36   20   22 ar
    37   21   23 ar
    38   21   38 1
    39   22   24 ar
    40   22   39 1
    41   23   25 ar
    42   23   40 1
    43   24   25 ar
    44   24   41 1
    45   25   43 1
