@<TRIPOS>MOLECULE
DB02530
   16    15     0     0     0
SMALL
USER_CHARGES

@<TRIPOS>ATOM
      1 O1         -3.7658   -0.3331   -0.1165 O.co2     1 <0>        -0.5498
      2 O2         -2.5882    1.6190    0.0184 O.co2     1 <0>        -0.5498
      3 N1          2.3313    0.2602   -0.0297 N.4       1 <0>         0.2185
      4 C1         -0.1148    0.3376    0.0349 C.3       1 <0>        -0.0076
      5 C2          1.1054   -0.5739    0.0111 C.3       1 <0>        -0.0351
      6 C3         -1.4196   -0.4531    0.0257 C.3       1 <0>        -0.0084
      7 C4         -2.7148    0.3643   -0.0235 C.2       1 <0>         0.0419
      8 H1         -0.0814    0.9792    0.9245 H         1 <0>         0.0320
      9 H2         -0.0904    1.0073   -0.8344 H         1 <0>         0.0320
     10 H3          1.1252   -1.2092   -0.8792 H         1 <0>         0.0813
     11 H4          1.1703   -1.1943    0.9096 H         1 <0>         0.0813
     12 H5         -1.4645   -1.0854    0.9213 H         1 <0>         0.0327
     13 H6         -1.4261   -1.1244   -0.8426 H         1 <0>         0.0327
     14 H7          2.3993    0.8750    0.7925 H         1 <0>         0.1994
     15 H8          2.3574    0.8565   -0.8676 H         1 <0>         0.1994
     16 H9          3.1767   -0.3255   -0.0445 H         1 <0>         0.1994
@<TRIPOS>BOND
     1    1    7 2
     2    2    7 1
     3    3    5 1
     4    3   14 1
     5    3   15 1
     6    3   16 1
     7    4    5 1
     8    4    6 1
     9    4    8 1
    10    4    9 1
    11    5   10 1
    12    5   11 1
    13    6    7 1
    14    6   12 1
    15    6   13 1
