@<TRIPOS>MOLECULE
DB02300
   70    73     0     0     0
SMALL
USER_CHARGES

@<TRIPOS>ATOM
      1 O1          7.4980   -0.4858    1.4936 O.3       1 <0>        -0.3875
      2 O2         -8.4250   -0.2425    0.7352 O.3       1 <0>        -0.3914
      3 O3         -4.7099   -2.0567    1.9650 O.3       1 <0>        -0.3871
      4 C1          0.7188    1.5274   -0.0441 C.3       1 <0>        -0.0222
      5 C2          2.1398    1.0036   -0.3643 C.3       1 <0>        -0.0291
      6 C3         -0.0903    0.7307   -1.0975 C.3       1 <0>        -0.0139
      7 C4          1.9335   -0.5088   -0.6105 C.3       1 <0>        -0.0486
      8 C5          0.4418   -0.6955   -0.9445 C.3       1 <0>        -0.0457
      9 C6          0.5209    3.0330   -0.3132 C.3       1 <0>        -0.0465
     10 C7          3.2185    1.2942    0.6692 C.3       1 <0>        -0.0223
     11 C8         -1.5572    1.0575   -1.0231 C.2       1 <0>        -0.0659
     12 C9          0.3106    1.2017    1.4158 C.3       1 <0>        -0.0587
     13 C10        -0.9685    3.4224   -0.3020 C.3       1 <0>        -0.0488
     14 C11        -1.8363    2.5349   -1.2091 C.3       1 <0>        -0.0312
     15 C12         3.3811    2.8023    0.8735 C.3       1 <0>        -0.0587
     16 C13         4.5337    0.6863    0.2446 C.2       1 <0>        -0.0824
     17 C14        -2.5367    0.1650   -0.8230 C.2       1 <0>        -0.0620
     18 C15         6.4801   -2.3387    0.3845 C.3       1 <0>        -0.0113
     19 C16         5.1913   -0.2428    0.9549 C.2       1 <0>        -0.0593
     20 C17         6.5033   -0.8441    0.5318 C.3       1 <0>         0.0762
     21 C18         6.0153   -2.9223   -0.9072 C.3       1 <0>        -0.0472
     22 C19         7.4667   -2.9818   -0.5307 C.3       1 <0>        -0.0472
     23 C20        -3.9324    0.5225   -0.7664 C.2       1 <0>        -0.0582
     24 C21        -4.9140   -0.3709   -0.5661 C.2       1 <0>        -0.0399
     25 C22        -6.3586    0.0466   -0.4503 C.3       1 <0>        -0.0011
     26 C23        -4.6657   -1.8019   -0.4032 C.2       1 <0>        -0.0229
     27 C24        -7.0353   -0.5489    0.7865 C.3       1 <0>         0.0619
     28 C25        -5.3680   -2.4590    0.7628 C.3       1 <0>         0.0822
     29 C26        -6.8481   -2.0695    0.8329 C.3       1 <0>         0.0037
     30 C27        -3.9104   -2.5085   -1.2597 C.2       1 <0>        -0.0928
     31 H1          2.4556    1.4400   -1.3255 H         1 <0>         0.0312
     32 H2          0.2264    1.0565   -2.1028 H         1 <0>         0.0351
     33 H3          2.5614   -0.8539   -1.4397 H         1 <0>         0.0268
     34 H4          2.1867   -1.1142    0.2676 H         1 <0>         0.0268
     35 H5         -0.0508   -1.2372   -0.1294 H         1 <0>         0.0271
     36 H6          0.3055   -1.2817   -1.8594 H         1 <0>         0.0271
     37 H7          1.0124    3.6642    0.4275 H         1 <0>         0.0271
     38 H8          0.9448    3.2993   -1.2899 H         1 <0>         0.0271
     39 H9          2.9404    0.8576    1.6369 H         1 <0>         0.0343
     40 H10        -0.7631    1.3299    1.5838 H         1 <0>         0.0235
     41 H11         0.5498    0.1708    1.6957 H         1 <0>         0.0235
     42 H12         0.8201    1.8574    2.1290 H         1 <0>         0.0235
     43 H13        -1.0670    4.4674   -0.6203 H         1 <0>         0.0268
     44 H14        -1.3540    3.3779    0.7238 H         1 <0>         0.0268
     45 H15        -1.6039    2.7829   -2.2540 H         1 <0>         0.0310
     46 H16        -2.8671    2.8519   -1.0589 H         1 <0>         0.0310
     47 H17         3.3521    3.3572   -0.0700 H         1 <0>         0.0235
     48 H18         2.6312    3.1978    1.5617 H         1 <0>         0.0235
     49 H19         4.3475    3.0252    1.3436 H         1 <0>         0.0235
     50 H20         4.9573    1.0357   -0.6945 H         1 <0>         0.0573
     51 H21        -2.2300   -0.8554   -0.6446 H         1 <0>         0.0617
     52 H22         6.2270   -2.8580    1.3009 H         1 <0>         0.0329
     53 H23         4.7728   -0.5907    1.8963 H         1 <0>         0.0595
     54 H24         6.8250   -0.3916   -0.4155 H         1 <0>         0.0640
     55 H25         5.7307   -2.2564   -1.7125 H         1 <0>         0.0269
     56 H26         5.4465   -3.8435   -0.8693 H         1 <0>         0.0269
     57 H27         8.1564   -2.3563   -1.0838 H         1 <0>         0.0269
     58 H28         7.8727   -3.9433   -0.2408 H         1 <0>         0.0269
     59 H29        -4.2424    1.5527   -0.8754 H         1 <0>         0.0620
     60 H30         7.5319    0.4854    1.5379 H         1 <0>         0.2102
     61 H31        -6.4627    1.1390   -0.4232 H         1 <0>         0.0338
     62 H32        -6.8970   -0.2710   -1.3541 H         1 <0>         0.0338
     63 H33        -6.6269   -0.0969    1.6985 H         1 <0>         0.0597
     64 H34        -5.2889   -3.5509    0.7037 H         1 <0>         0.0644
     65 H35        -7.3030   -2.4519    1.7552 H         1 <0>         0.0318
     66 H36        -7.3998   -2.5322    0.0039 H         1 <0>         0.0318
     67 H37        -3.7601   -3.5744   -1.1171 H         1 <0>         0.0538
     68 H38        -3.4588   -2.0749   -2.1460 H         1 <0>         0.0538
     69 H39        -8.5117    0.7259    0.7184 H         1 <0>         0.2098
     70 H40        -5.1641   -2.4910    2.7070 H         1 <0>         0.2102
@<TRIPOS>BOND
     1    1   20 1
     2    1   60 1
     3    2   27 1
     4    2   69 1
     5    3   28 1
     6    3   70 1
     7    4    5 1
     8    4    6 1
     9    4    9 1
    10    4   12 1
    11    5    7 1
    12    5   10 1
    13    5   31 1
    14    6    8 1
    15    6   11 1
    16    6   32 1
    17    7    8 1
    18    7   33 1
    19    7   34 1
    20    8   35 1
    21    8   36 1
    22    9   13 1
    23    9   37 1
    24    9   38 1
    25   10   15 1
    26   10   16 1
    27   10   39 1
    28   11   14 1
    29   11   17 2
    30   12   40 1
    31   12   41 1
    32   12   42 1
    33   13   14 1
    34   13   43 1
    35   13   44 1
    36   14   45 1
    37   14   46 1
    38   15   47 1
    39   15   48 1
    40   15   49 1
    41   16   19 2
    42   16   50 1
    43   17   23 1
    44   17   51 1
    45   18   20 1
    46   18   21 1
    47   18   22 1
    48   18   52 1
    49   19   20 1
    50   19   53 1
    51   20   54 1
    52   21   22 1
    53   21   55 1
    54   21   56 1
    55   22   57 1
    56   22   58 1
    57   23   24 2
    58   23   59 1
    59   24   25 1
    60   24   26 1
    61   25   27 1
    62   25   61 1
    63   25   62 1
    64   26   28 1
    65   26   30 2
    66   27   29 1
    67   27   63 1
    68   28   29 1
    69   28   64 1
    70   29   65 1
    71   29   66 1
    72   30   67 1
    73   30   68 1
