@<TRIPOS>MOLECULE
DB03247
   52    54     0     0     0
SMALL
USER_CHARGES

@<TRIPOS>ATOM
      1 P1          5.2213    0.8008   -1.9460 P.3       1 <0>         0.4724
      2 O1          0.6984   -2.3680   -0.3485 O.3       1 <0>        -0.3874
      3 O2          2.2912   -0.5577    2.4167 O.3       1 <0>        -0.3865
      4 O3          4.5450   -1.8303    1.3996 O.3       1 <0>        -0.3868
      5 O4          4.7854   -0.4501   -1.0211 O.3       1 <0>        -0.2841
      6 O5         -5.3203   -2.5049   -2.0321 O.2       1 <0>        -0.2653
      7 O6         -2.4646   -5.5591   -0.1247 O.2       1 <0>        -0.2446
      8 O7          5.2785    2.0434   -0.9125 O.3       1 <0>        -0.3026
      9 O8          3.8819    1.0919   -2.8040 O.3       1 <0>        -0.3026
     10 O9          6.4629    0.5873   -2.7619 O.2       1 <0>        -0.2275
     11 N1         -1.5837   -1.0503    0.6679 N.pl3     1 <0>        -0.3195
     12 N2         -3.8637   -0.5209   -0.9283 N.2       1 <0>        -0.2368
     13 N3         -2.0296   -3.3596    0.2661 N.2       1 <0>        -0.1733
     14 N4         -3.8858   -4.0680   -1.0751 N.am      1 <0>        -0.2717
     15 C1          0.8542   -1.3287    0.6189 C.3       1 <0>         0.1014
     16 C2          2.1387   -1.5803    1.4332 C.3       1 <0>         0.1106
     17 C3         -0.4024   -1.2865    1.4964 C.3       1 <0>         0.0538
     18 C4          3.4079   -1.6180    0.5608 C.3       1 <0>         0.1073
     19 C5         -1.9786    0.2858    0.4364 C.ar      1 <0>         0.0694
     20 C6         -2.3093   -2.0987    0.1145 C.cat     1 <0>         0.1705
     21 C7         -3.1165    0.5235   -0.3611 C.ar      1 <0>         0.0886
     22 C8          3.6163   -0.3201   -0.2183 C.3       1 <0>         0.0875
     23 C9         -1.2970    1.4006    0.9595 C.ar      1 <0>        -0.0329
     24 C10        -3.5088   -1.7475   -0.7221 C.2       1 <0>         0.1712
     25 C11        -1.7285    2.7044    0.7015 C.ar      1 <0>        -0.0455
     26 C12        -3.5417    1.8368   -0.6141 C.ar      1 <0>        -0.0311
     27 C13        -2.8513    2.9230   -0.0853 C.ar      1 <0>        -0.0454
     28 C14        -4.3509   -2.8054   -1.3568 C.2       1 <0>         0.2817
     29 C15        -0.9648    3.8488    1.2837 C.3       1 <0>        -0.0394
     30 C16        -3.3330    4.3053   -0.3779 C.3       1 <0>        -0.0394
     31 C17        -2.7702   -4.3769   -0.2961 C.2       1 <0>         0.3505
     32 H1          0.9283   -0.3754    0.0864 H         1 <0>         0.0638
     33 H2          2.0577   -2.5342    1.9693 H         1 <0>         0.0646
     34 H3         -0.5109   -2.2635    1.9872 H         1 <0>         0.0519
     35 H4         -0.3167   -0.5849    2.3319 H         1 <0>         0.0519
     36 H5          3.3648   -2.4653   -0.1333 H         1 <0>         0.0643
     37 H6          2.7743   -0.1106   -0.8803 H         1 <0>         0.0592
     38 H7          3.7605    0.5206    0.4674 H         1 <0>         0.0592
     39 H8         -0.4032    1.2830    1.5645 H         1 <0>         0.0641
     40 H9          0.0242   -2.0756   -0.9846 H         1 <0>         0.2100
     41 H10        -4.4227    1.9986   -1.2323 H         1 <0>         0.0642
     42 H11         3.1082   -0.7461    2.9095 H         1 <0>         0.2100
     43 H12         5.3314   -1.8389    0.8273 H         1 <0>         0.2100
     44 H13        -0.1099    3.5094    1.8789 H         1 <0>         0.0278
     45 H14        -0.5693    4.4914    0.4902 H         1 <0>         0.0278
     46 H15        -1.6037    4.4408    1.9472 H         1 <0>         0.0278
     47 H16        -4.2276    4.2984   -1.0104 H         1 <0>         0.0278
     48 H17        -3.5973    4.8262    0.5482 H         1 <0>         0.0278
     49 H18        -2.5659    4.8766   -0.9108 H         1 <0>         0.0278
     50 H19        -4.4012   -4.8499   -1.4692 H         1 <0>         0.1735
     51 H20         5.5849    2.9169   -1.2371 H         1 <0>         0.2220
     52 H21         3.9132    1.7617   -3.5198 H         1 <0>         0.2220
@<TRIPOS>BOND
     1    1    5 1
     2    1    8 1
     3    1    9 1
     4    1   10 2
     5    2   15 1
     6    2   40 1
     7    3   16 1
     8    3   42 1
     9    4   18 1
    10    4   43 1
    11    5   22 1
    12    6   28 2
    13    7   31 2
    14    8   51 1
    15    9   52 1
    16   11   17 1
    17   11   19 1
    18   11   20 1
    19   12   21 1
    20   12   24 2
    21   13   20 1
    22   13   31 1
    23   14   28 am
    24   14   31 am
    25   14   50 1
    26   15   16 1
    27   15   17 1
    28   15   32 1
    29   16   18 1
    30   16   33 1
    31   17   34 1
    32   17   35 1
    33   18   22 1
    34   18   36 1
    35   19   21 ar
    36   19   23 ar
    37   20   24 1
    38   21   26 ar
    39   22   37 1
    40   22   38 1
    41   23   25 ar
    42   23   39 1
    43   24   28 1
    44   25   27 ar
    45   25   29 1
    46   26   27 ar
    47   26   41 1
    48   27   30 1
    49   29   44 1
    50   29   45 1
    51   29   46 1
    52   30   47 1
    53   30   48 1
    54   30   49 1
