@<TRIPOS>MOLECULE
DB03312
   32    33     0     0     0
SMALL
USER_CHARGES

@<TRIPOS>ATOM
      1 Br1        -3.6326    3.9015   -0.6267 Br        1 <0>        -0.0587
      2 O1          1.2727   -0.0403    1.2940 O.3       1 <0>        -0.3483
      3 O2          3.9180   -1.0518    0.1311 O.3       1 <0>        -0.3890
      4 O3          1.2278    2.7578    1.1443 O.3       1 <0>        -0.3924
      5 O4         -0.4917   -3.6134    0.3305 O.2       1 <0>        -0.2464
      6 O5         -4.4971   -1.4187   -0.1653 O.2       1 <0>        -0.2671
      7 N1         -0.4658   -1.2794    0.3365 N.am      1 <0>        -0.2734
      8 N2         -2.4812   -2.5003    0.0847 N.am      1 <0>        -0.2744
      9 C1          2.8953   -0.2281   -0.4246 C.3       1 <0>         0.0876
     10 C2          0.9548   -1.2004    0.5121 C.3       1 <0>         0.1422
     11 C3          1.7058   -1.0795   -0.8039 C.3       1 <0>         0.0214
     12 C4          2.3317    0.6930    0.6485 C.3       1 <0>         0.1100
     13 C5          1.7344    1.9725    0.0772 C.3       1 <0>         0.0729
     14 C6         -1.2169   -0.1138    0.2454 C.2       1 <0>         0.0242
     15 C7         -1.0939   -2.5402    0.2570 C.2       1 <0>         0.3314
     16 C8         -2.5460   -0.0753    0.0808 C.2       1 <0>         0.0562
     17 C9         -3.2791   -1.3698   -0.0124 C.2       1 <0>         0.2611
     18 C10        -3.2660    1.1690   -0.0063 C.2       1 <0>        -0.0412
     19 C11        -2.7298    2.2855   -0.5017 C.2       1 <0>        -0.0178
     20 H1          3.3302    0.3116   -1.2710 H         1 <0>         0.0621
     21 H2          1.3132   -2.0731    1.0712 H         1 <0>         0.0840
     22 H3          1.1021   -0.5563   -1.5554 H         1 <0>         0.0335
     23 H4          1.9685   -2.0622   -1.2082 H         1 <0>         0.0335
     24 H5          3.0706    0.9333    1.4210 H         1 <0>         0.0646
     25 H6          0.9295    1.7852   -0.6370 H         1 <0>         0.0584
     26 H7          2.5108    2.5538   -0.4314 H         1 <0>         0.0584
     27 H8          4.2099   -1.6633   -0.5663 H         1 <0>         0.2099
     28 H9         -0.6648    0.8071    0.3419 H         1 <0>         0.0819
     29 H10        -2.9550   -3.3973    0.0241 H         1 <0>         0.1734
     30 H11         0.8601    3.5687    0.7534 H         1 <0>         0.2095
     31 H12        -4.2915    1.1700    0.3535 H         1 <0>         0.0631
     32 H13        -1.7242    2.3541   -0.8971 H         1 <0>         0.0696
@<TRIPOS>BOND
     1    1   19 1
     2    2   10 1
     3    2   12 1
     4    3    9 1
     5    3   27 1
     6    4   13 1
     7    4   30 1
     8    5   15 2
     9    6   17 2
    10    7   10 1
    11    7   14 1
    12    7   15 am
    13    8   15 am
    14    8   17 am
    15    8   29 1
    16    9   11 1
    17    9   12 1
    18    9   20 1
    19   10   11 1
    20   10   21 1
    21   11   22 1
    22   11   23 1
    23   12   13 1
    24   12   24 1
    25   13   25 1
    26   13   26 1
    27   14   16 2
    28   14   28 1
    29   16   17 1
    30   16   18 1
    31   18   19 2
    32   18   31 1
    33   19   32 1
