@<TRIPOS>MOLECULE
DB03017
   38    37     0     0     0
SMALL
USER_CHARGES

@<TRIPOS>ATOM
      1 O1          8.0534    0.4217   -0.0380 O.3       1 <0>        -0.4806
      2 O2          6.9284   -1.5507   -0.1388 O.2       1 <0>        -0.2510
      3 C1         -0.6816   -0.4604    0.0435 C.3       1 <0>        -0.0531
      4 C2          0.5690    0.4214    0.0313 C.3       1 <0>        -0.0531
      5 C3         -1.9572    0.3867    0.0362 C.3       1 <0>        -0.0531
      6 C4          1.8763   -0.3762    0.0150 C.3       1 <0>        -0.0530
      7 C5         -3.2072   -0.4952    0.0103 C.3       1 <0>        -0.0531
      8 C6          3.1273    0.5060    0.0278 C.3       1 <0>        -0.0526
      9 C7         -4.5148    0.3015   -0.0293 C.3       1 <0>        -0.0533
     10 C8          4.4029   -0.3433    0.0224 C.3       1 <0>        -0.0430
     11 C9         -5.8005   -0.5272    0.0282 C.3       1 <0>        -0.0559
     12 C10         5.6700    0.5067    0.0007 C.3       1 <0>         0.0448
     13 C11        -7.0673    0.3084   -0.0674 C.3       1 <0>        -0.0653
     14 C12         6.9240   -0.3289   -0.0645 C.2       1 <0>         0.3047
     15 H1         -0.6694   -1.1032    0.9318 H         1 <0>         0.0265
     16 H2         -0.6710   -1.1189   -0.8334 H         1 <0>         0.0265
     17 H3          0.5417    1.0777   -0.8475 H         1 <0>         0.0265
     18 H4          0.5586    1.0736    0.9135 H         1 <0>         0.0265
     19 H5         -1.9578    1.0446   -0.8412 H         1 <0>         0.0265
     20 H6         -1.9792    1.0302    0.9239 H         1 <0>         0.0265
     21 H7          1.8931   -1.0165   -0.8758 H         1 <0>         0.0265
     22 H8          1.8973   -1.0439    0.8852 H         1 <0>         0.0265
     23 H9         -3.1700   -1.1583   -0.8628 H         1 <0>         0.0265
     24 H10        -3.2104   -1.1406    0.8974 H         1 <0>         0.0265
     25 H11         3.1171    1.1477    0.9169 H         1 <0>         0.0265
     26 H12         3.1190    1.1649   -0.8486 H         1 <0>         0.0265
     27 H13        -4.5209    1.0097    0.8091 H         1 <0>         0.0265
     28 H14        -4.5258    0.9075   -0.9442 H         1 <0>         0.0265
     29 H15         4.3924   -1.0050   -0.8531 H         1 <0>         0.0270
     30 H16         4.4141   -0.9951    0.9052 H         1 <0>         0.0270
     31 H17        -5.7955   -1.2567   -0.7902 H         1 <0>         0.0263
     32 H18        -5.8197   -1.0993    0.9633 H         1 <0>         0.0263
     33 H19         5.6596    1.1653   -0.8748 H         1 <0>         0.0377
     34 H20         5.7159    1.1214    0.9064 H         1 <0>         0.0377
     35 H21        -7.1234    1.0272    0.7561 H         1 <0>         0.0230
     36 H22        -7.0986    0.8632   -1.0105 H         1 <0>         0.0230
     37 H23        -7.9517   -0.3346   -0.0204 H         1 <0>         0.0230
     38 H24         8.8620   -0.1317   -0.0836 H         1 <0>         0.2951
@<TRIPOS>BOND
     1    1   14 1
     2    1   38 1
     3    2   14 2
     4    3    4 1
     5    3    5 1
     6    3   15 1
     7    3   16 1
     8    4    6 1
     9    4   17 1
    10    4   18 1
    11    5    7 1
    12    5   19 1
    13    5   20 1
    14    6    8 1
    15    6   21 1
    16    6   22 1
    17    7    9 1
    18    7   23 1
    19    7   24 1
    20    8   10 1
    21    8   25 1
    22    8   26 1
    23    9   11 1
    24    9   27 1
    25    9   28 1
    26   10   12 1
    27   10   29 1
    28   10   30 1
    29   11   13 1
    30   11   31 1
    31   11   32 1
    32   12   14 1
    33   12   33 1
    34   12   34 1
    35   13   35 1
    36   13   36 1
    37   13   37 1
