@<TRIPOS>MOLECULE
DB03766
   11    10     0     0     0
SMALL
USER_CHARGES

@<TRIPOS>ATOM
      1 O1         -2.1817   -0.4237    0.0062 O.3       1 <0>        -0.4806
      2 O2         -1.0345    1.5423   -0.0098 O.2       1 <0>        -0.2510
      3 C1          0.1624   -0.5810   -0.0049 C.3       1 <0>         0.0420
      4 C2          1.4604    0.2074    0.0036 C.3       1 <0>        -0.0552
      5 C3         -1.0459    0.3204   -0.0033 C.2       1 <0>         0.3044
      6 H1          0.1249   -1.2098   -0.9005 H         1 <0>         0.0375
      7 H2          0.1204   -1.2193    0.8840 H         1 <0>         0.0375
      8 H3          2.3187   -0.4714    0.0037 H         1 <0>         0.0235
      9 H4          1.5342    0.8529   -0.8779 H         1 <0>         0.0235
     10 H5          1.5275    0.8448    0.8916 H         1 <0>         0.0235
     11 H6         -2.9863    0.1374    0.0073 H         1 <0>         0.2951
@<TRIPOS>BOND
     1    1    5 1
     2    1   11 1
     3    2    5 2
     4    3    4 1
     5    3    5 1
     6    3    6 1
     7    3    7 1
     8    4    8 1
     9    4    9 1
    10    4   10 1
