@<TRIPOS>MOLECULE
DB03615
   65    67     0     0     0
SMALL
USER_CHARGES

@<TRIPOS>ATOM
      1 O1          1.2894   -0.7212   -0.1432 O.3       1 <0>        -0.3422
      2 O2         -2.3621   -0.8352    0.0135 O.3       1 <0>        -0.3402
      3 O3          2.1677    1.4382    0.2630 O.3       1 <0>        -0.3425
      4 O4          0.1447   -2.7979   -1.7844 O.3       1 <0>        -0.3876
      5 O5         -2.2879    1.3800   -0.8149 O.3       1 <0>        -0.3405
      6 O6          4.7010    0.0671   -2.7016 O.3       1 <0>        -0.3874
      7 O7         -5.3775   -0.4093   -0.5431 O.3       1 <0>        -0.3841
      8 O8          5.6404    0.2330    0.0105 O.3       1 <0>        -0.3866
      9 O9         -5.0315    1.9003   -1.9488 O.3       1 <0>        -0.3864
     10 O10        -1.4923    3.5441    0.7875 O.3       1 <0>        -0.3924
     11 N1         -0.9980   -1.5385    2.6190 N.3       1 <0>        -0.3250
     12 N2         -2.2023   -3.7249    0.8920 N.3       1 <0>        -0.3250
     13 N3          1.8447   -0.4338   -2.9292 N.3       1 <0>        -0.3211
     14 N4          2.9810    2.0663    2.8779 N.3       1 <0>        -0.3276
     15 C1          0.0160   -0.7520    0.5057 C.3       1 <0>         0.1055
     16 C2         -1.0724   -1.1281   -0.5152 C.3       1 <0>         0.1166
     17 C3          0.1181   -1.7278    1.6923 C.3       1 <0>         0.0355
     18 C4         -1.0032   -2.6012   -0.9552 C.3       1 <0>         0.0990
     19 C5         -0.9111   -3.5956    0.2165 C.3       1 <0>         0.0351
     20 C6          0.1938   -3.1884    1.2092 C.3       1 <0>        -0.0175
     21 C7          1.5564    0.5670   -0.6935 C.3       1 <0>         0.1776
     22 C8         -3.0257    0.1475   -0.7676 C.3       1 <0>         0.1884
     23 C9          2.4482    0.4555   -1.9361 C.3       1 <0>         0.0853
     24 C10         3.8507   -0.0333   -1.5579 C.3       1 <0>         0.1033
     25 C11        -4.3623    0.4828   -0.1287 C.3       1 <0>         0.1341
     26 C12         4.4298    0.8380   -0.4376 C.3       1 <0>         0.1100
     27 C13         3.4407    0.9747    0.7262 C.3       1 <0>         0.1022
     28 C14        -4.5895    1.9045   -0.5921 C.3       1 <0>         0.1141
     29 C15        -3.1803    2.4806   -0.5335 C.3       1 <0>         0.1131
     30 C16         3.9247    1.9731    1.7743 C.3       1 <0>         0.0222
     31 C17        -2.8191    3.0453    0.8339 C.3       1 <0>         0.0730
     32 H1         -0.2014    0.2421    0.9233 H         1 <0>         0.0639
     33 H2         -0.8909   -0.5463   -1.4287 H         1 <0>         0.0650
     34 H3          1.0438   -1.5171    2.2430 H         1 <0>         0.0485
     35 H4         -1.8784   -2.8426   -1.5705 H         1 <0>         0.0636
     36 H5         -0.6493   -4.5845   -0.1802 H         1 <0>         0.0485
     37 H6          1.1715   -3.3470    0.7355 H         1 <0>         0.0297
     38 H7          0.1878   -3.8673    2.0733 H         1 <0>         0.0297
     39 H8          0.6238    1.0557   -1.0026 H         1 <0>         0.0927
     40 H9         -3.1588   -0.2292   -1.7901 H         1 <0>         0.0938
     41 H10         2.5457    1.4482   -2.3947 H         1 <0>         0.0535
     42 H11         3.8455   -1.0861   -1.2477 H         1 <0>         0.0637
     43 H12        -4.2942    0.4394    0.9649 H         1 <0>         0.0671
     44 H13         4.6830    1.8278   -0.8383 H         1 <0>         0.0646
     45 H14         3.3145    0.0006    1.2189 H         1 <0>         0.0636
     46 H15        -5.3310    2.4446    0.0032 H         1 <0>         0.0648
     47 H16        -3.0066    3.2333   -1.3107 H         1 <0>         0.0647
     48 H17        -0.9845   -0.5872    2.9844 H         1 <0>         0.1185
     49 H18        -0.8873   -2.1574    3.4211 H         1 <0>         0.1185
     50 H19        -2.4846   -2.8242    1.2768 H         1 <0>         0.1185
     51 H20        -2.1116   -4.3548    1.6882 H         1 <0>         0.1185
     52 H21         0.9380   -2.6124   -1.2560 H         1 <0>         0.2100
     53 H22         4.9031    1.6767    2.1660 H         1 <0>         0.0448
     54 H23         4.0283    2.9682    1.3263 H         1 <0>         0.0448
     55 H24         1.8063   -1.3840   -2.5670 H         1 <0>         0.1187
     56 H25         0.8805   -0.1536   -3.1029 H         1 <0>         0.1187
     57 H26        -2.8434    2.2744    1.6097 H         1 <0>         0.0584
     58 H27        -3.4912    3.8589    1.1238 H         1 <0>         0.0584
     59 H28         4.3032   -0.4725   -3.4061 H         1 <0>         0.2100
     60 H29        -5.0975   -1.3063   -0.2927 H         1 <0>         0.2101
     61 H30         6.2312    0.1579   -0.7584 H         1 <0>         0.2100
     62 H31        -5.1156    2.8275   -2.2293 H         1 <0>         0.2100
     63 H32         3.2859    2.7912    3.5259 H         1 <0>         0.1183
     64 H33         2.0699    2.3590    2.5272 H         1 <0>         0.1183
     65 H34        -1.4677    4.2562    0.1257 H         1 <0>         0.2095
@<TRIPOS>BOND
     1    1   15 1
     2    1   21 1
     3    2   16 1
     4    2   22 1
     5    3   21 1
     6    3   27 1
     7    4   18 1
     8    4   52 1
     9    5   22 1
    10    5   29 1
    11    6   24 1
    12    6   59 1
    13    7   25 1
    14    7   60 1
    15    8   26 1
    16    8   61 1
    17    9   28 1
    18    9   62 1
    19   10   31 1
    20   10   65 1
    21   11   17 1
    22   11   48 1
    23   11   49 1
    24   12   19 1
    25   12   50 1
    26   12   51 1
    27   13   23 1
    28   13   55 1
    29   13   56 1
    30   14   30 1
    31   14   63 1
    32   14   64 1
    33   15   16 1
    34   15   17 1
    35   15   32 1
    36   16   18 1
    37   16   33 1
    38   17   20 1
    39   17   34 1
    40   18   19 1
    41   18   35 1
    42   19   20 1
    43   19   36 1
    44   20   37 1
    45   20   38 1
    46   21   23 1
    47   21   39 1
    48   22   25 1
    49   22   40 1
    50   23   24 1
    51   23   41 1
    52   24   26 1
    53   24   42 1
    54   25   28 1
    55   25   43 1
    56   26   27 1
    57   26   44 1
    58   27   30 1
    59   27   45 1
    60   28   29 1
    61   28   46 1
    62   29   31 1
    63   29   47 1
    64   30   53 1
    65   30   54 1
    66   31   57 1
    67   31   58 1
