@<TRIPOS>MOLECULE
DB03754
   19    18     0     0     0
SMALL
USER_CHARGES

@<TRIPOS>ATOM
      1 O1         -1.0564   -1.8156   -0.6641 O.3       1 <0>        -0.3930
      2 O2         -1.8758    1.5146    0.0435 O.3       1 <0>        -0.3930
      3 O3          2.3144   -0.9952   -0.0498 O.3       1 <0>        -0.3930
      4 N1          0.5941    0.8250    1.3207 N.3       1 <0>        -0.3193
      5 C1          0.1599    0.1579    0.0825 C.3       1 <0>         0.0865
      6 C2         -0.5962   -1.1226    0.4905 C.3       1 <0>         0.0665
      7 C3         -0.7404    1.1229   -0.7191 C.3       1 <0>         0.0665
      8 C4          1.4095   -0.1617   -0.7647 C.3       1 <0>         0.0665
      9 H1          0.0530   -1.8029    1.0540 H         1 <0>         0.0577
     10 H2         -1.4639   -0.8990    1.1214 H         1 <0>         0.0577
     11 H3         -1.0897    0.6709   -1.6541 H         1 <0>         0.0577
     12 H4         -0.1953    2.0363   -0.9838 H         1 <0>         0.0577
     13 H5          1.9469    0.7507   -1.0485 H         1 <0>         0.0577
     14 H6          1.1373   -0.6814   -1.6896 H         1 <0>         0.0577
     15 H7         -0.2222    1.1045    1.8640 H         1 <0>         0.1189
     16 H8          1.0895    1.6864    1.0930 H         1 <0>         0.1189
     17 H9         -1.5203   -2.6116   -0.3531 H         1 <0>         0.2095
     18 H10        -2.4830    0.7567    0.0797 H         1 <0>         0.2095
     19 H11         2.5387   -0.5361    0.7775 H         1 <0>         0.2095
@<TRIPOS>BOND
     1    1    6 1
     2    1   17 1
     3    2    7 1
     4    2   18 1
     5    3    8 1
     6    3   19 1
     7    4    5 1
     8    4   15 1
     9    4   16 1
    10    5    6 1
    11    5    7 1
    12    5    8 1
    13    6    9 1
    14    6   10 1
    15    7   11 1
    16    7   12 1
    17    8   13 1
    18    8   14 1
