@<TRIPOS>MOLECULE
DB03793
   15    15     0     0     0
SMALL
USER_CHARGES

@<TRIPOS>ATOM
      1 O1          2.7400    0.7587   -0.0007 O.3       1 <0>        -0.4771
      2 O2          2.5969   -1.5098    0.0009 O.2       1 <0>        -0.2451
      3 C1          0.6002   -0.1917    0.0001 C.ar      1 <0>         0.0588
      4 C2         -0.2690   -1.2827   -0.0001 C.ar      1 <0>        -0.0478
      5 C3          0.0898    1.1066    0.0002 C.ar      1 <0>        -0.0478
      6 C4         -1.6485   -1.0758   -0.0002 C.ar      1 <0>        -0.0610
      7 C5         -1.2897    1.3135    0.0001 C.ar      1 <0>        -0.0610
      8 C6         -2.1587    0.2224   -0.0001 C.ar      1 <0>        -0.0617
      9 C7          2.0382   -0.4078    0.0005 C.2       1 <0>         0.3368
     10 H1          0.1084   -2.3021   -0.0000 H         1 <0>         0.0626
     11 H2          0.7299    1.9843    0.0004 H         1 <0>         0.0626
     12 H3         -2.3254   -1.9251   -0.0003 H         1 <0>         0.0618
     13 H4         -1.6878    2.3241    0.0002 H         1 <0>         0.0618
     14 H5         -3.2327    0.3837   -0.0002 H         1 <0>         0.0618
     15 H6          3.7084    0.6019   -0.0009 H         1 <0>         0.2954
@<TRIPOS>BOND
     1    1    9 1
     2    1   15 1
     3    2    9 2
     4    3    4 ar
     5    3    5 ar
     6    3    9 1
     7    4    6 ar
     8    4   10 1
     9    5    7 ar
    10    5   11 1
    11    6    8 ar
    12    6   12 1
    13    7    8 ar
    14    7   13 1
    15    8   14 1
