@<TRIPOS>MOLECULE
DB03209
   14    14     0     0     0
SMALL
USER_CHARGES

@<TRIPOS>ATOM
      1 O1          1.9701   -2.2213    0.1173 O.2       1 <0>        -0.2466
      2 O2         -2.6095    0.2220    0.9090 O.3       1 <0>        -0.4750
      3 O3          2.0798    2.3700    0.0393 O.2       1 <0>        -0.2445
      4 O4         -2.6291    0.1748   -1.3774 O.2       1 <0>        -0.2417
      5 N1          0.0140   -1.0193   -0.0931 N.am      1 <0>        -0.2867
      6 N2          2.0461    0.0880    0.0792 N.am      1 <0>        -0.2587
      7 N3          0.0401    1.3478   -0.1369 N.2       1 <0>        -0.1683
      8 C1         -0.5797    0.2151   -0.1739 C.2       1 <0>         0.2248
      9 C2          1.3882   -1.1402    0.0404 C.2       1 <0>         0.3296
     10 C3          1.4164    1.3332   -0.0050 C.2       1 <0>         0.3517
     11 C4         -2.0529    0.2009   -0.3147 C.2       1 <0>         0.3728
     12 H1         -0.5512   -1.8624   -0.1304 H         1 <0>         0.1720
     13 H2          3.0573    0.0779    0.1761 H         1 <0>         0.1750
     14 H3         -3.5897    0.2136    0.8701 H         1 <0>         0.2955
@<TRIPOS>BOND
     1    1    9 2
     2    2   11 1
     3    2   14 1
     4    3   10 2
     5    4   11 2
     6    5    8 1
     7    5    9 am
     8    5   12 1
     9    6    9 am
    10    6   10 am
    11    6   13 1
    12    7    8 2
    13    7   10 1
    14    8   11 1
