@<TRIPOS>MOLECULE
DB03929
   14    13     0     0     0
SMALL
USER_CHARGES

@<TRIPOS>ATOM
      1 O1          2.1314   -0.4576    0.2739 O.3       1 <0>        -0.3890
      2 O2         -0.5858   -1.7360   -1.4016 O.co2     1 <0>        -0.5441
      3 O3         -0.7748   -2.4206    0.7666 O.co2     1 <0>        -0.5441
      4 N1         -1.3140    0.8468   -0.0465 N.4       1 <0>         0.2266
      5 C1         -0.2682   -0.1494    0.3494 C.3       1 <0>         0.0395
      6 C2          1.0777    0.4344   -0.0694 C.3       1 <0>         0.0922
      7 C3         -0.5652   -1.5741   -0.1500 C.2       1 <0>         0.0916
      8 H1         -0.3027   -0.1719    1.4462 H         1 <0>         0.0938
      9 H2          1.2625    1.3916    0.4302 H         1 <0>         0.0618
     10 H3          1.1150    0.5942   -1.1527 H         1 <0>         0.0618
     11 H4         -2.2458    0.5522    0.2747 H         1 <0>         0.2001
     12 H5         -1.3618    0.9583   -1.0681 H         1 <0>         0.2001
     13 H6         -1.1303    1.7739    0.3604 H         1 <0>         0.2001
     14 H7          2.9622   -0.0417   -0.0131 H         1 <0>         0.2097
@<TRIPOS>BOND
     1    1    6 1
     2    1   14 1
     3    2    7 2
     4    3    7 1
     5    4    5 1
     6    4   11 1
     7    4   12 1
     8    4   13 1
     9    5    6 1
    10    5    7 1
    11    5    8 1
    12    6    9 1
    13    6   10 1
