@<TRIPOS>MOLECULE
DB03088
   16    16     0     0     0
SMALL
USER_CHARGES

@<TRIPOS>ATOM
      1 O1         -2.5793    1.4014   -0.6042 O.2       1 <0>        -0.2758
      2 O2          2.5685   -0.4538   -0.1438 O.3       1 <0>        -0.4793
      3 O3          1.5786    1.3418   -1.1399 O.2       1 <0>        -0.2489
      4 N1         -0.5062    1.2350    0.4712 N.am      1 <0>        -0.3023
      5 C1          0.4880    0.2253    0.7018 C.3       1 <0>         0.1206
      6 C2         -0.2568   -1.0754    0.4679 C.3       1 <0>        -0.0159
      7 C3         -1.3688   -0.7028   -0.5122 C.3       1 <0>         0.0262
      8 C4         -1.6070    0.7614   -0.2343 C.2       1 <0>         0.2137
      9 C5          1.5764    0.4572   -0.2968 C.2       1 <0>         0.3253
     10 H1          0.8825    0.3306    1.7162 H         1 <0>         0.0614
     11 H2         -0.7117   -1.4093    1.4092 H         1 <0>         0.0293
     12 H3          0.3639   -1.8937    0.0909 H         1 <0>         0.0293
     13 H4         -2.2756   -1.2873   -0.3390 H         1 <0>         0.0359
     14 H5         -1.0410   -0.8153   -1.5503 H         1 <0>         0.0359
     15 H6         -0.4037    2.2044    0.7555 H         1 <0>         0.1495
     16 H7          3.2923   -0.3196   -0.7922 H         1 <0>         0.2951
@<TRIPOS>BOND
     1    1    8 2
     2    2    9 1
     3    2   16 1
     4    3    9 2
     5    4    5 1
     6    4    8 am
     7    4   15 1
     8    5    6 1
     9    5    9 1
    10    5   10 1
    11    6    7 1
    12    6   11 1
    13    6   12 1
    14    7    8 1
    15    7   13 1
    16    7   14 1
