@<TRIPOS>MOLECULE
DB03085
    9     8     0     0     0
SMALL
USER_CHARGES

@<TRIPOS>ATOM
      1 O1         -1.0851    0.5214   -0.0255 O.3       1 <0>        -0.4430
      2 O2          1.4956    1.1220    0.8369 O.co2     1 <0>        -0.5428
      3 O3          1.9848   -0.2974   -0.8885 O.co2     1 <0>        -0.5428
      4 C1         -0.1102   -0.4623    0.1699 C.3       1 <0>         0.1873
      5 C2          1.2552    0.1863    0.0226 C.2       1 <0>         0.1187
      6 H1         -0.2173   -0.8776    1.1766 H         1 <0>         0.1234
      7 H2         -0.2613   -1.2634   -0.5602 H         1 <0>         0.1234
      8 H3         -1.9886    0.1949    0.2200 H         1 <0>         0.4879
      9 H4         -1.0732    0.8760   -0.9517 H         1 <0>         0.4879
@<TRIPOS>BOND
     1    1    4 1
     2    1    8 1
     3    1    9 1
     4    2    5 2
     5    3    5 1
     6    4    5 1
     7    4    6 1
     8    4    7 1
