@<TRIPOS>MOLECULE
DB03128
   26    25     0     0     0
SMALL
USER_CHARGES

@<TRIPOS>ATOM
      1 O1         -2.0429   -0.4052   -0.0159 O.3       1 <0>        -0.4594
      2 O2         -3.1179    1.6394    0.0171 O.2       1 <0>        -0.2512
      3 N1          1.6753   -0.0872    0.0001 N.4       1 <0>         0.2393
      4 C1          0.3262   -0.7906   -0.0378 C.3       1 <0>         0.0042
      5 C2          1.7667    0.7676    1.2561 C.3       1 <0>        -0.0417
      6 C3          2.7882   -1.1252    0.0108 C.3       1 <0>        -0.0417
      7 C4          1.8201    0.7993   -1.2284 C.3       1 <0>        -0.0417
      8 C5         -0.7795    0.2462   -0.0170 C.3       1 <0>         0.1320
      9 C6         -3.1363    0.4161    0.0022 C.2       1 <0>         0.3041
     10 C7         -4.3904   -0.4043    0.0006 C.3       1 <0>         0.0332
     11 H1          0.2808   -1.4076   -0.9432 H         1 <0>         0.0849
     12 H2          0.2607   -1.4594    0.8291 H         1 <0>         0.0849
     13 H3          1.4660    0.1634    2.1171 H         1 <0>         0.0778
     14 H4          2.8082    1.0851    1.3719 H         1 <0>         0.0778
     15 H5          1.1450    1.6604    1.1542 H         1 <0>         0.0778
     16 H6          2.7029   -1.7314   -0.8960 H         1 <0>         0.0778
     17 H7          3.7514   -0.6068    0.0335 H         1 <0>         0.0778
     18 H8          2.6699   -1.7487    0.9021 H         1 <0>         0.0778
     19 H9          1.5835    0.2087   -2.1184 H         1 <0>         0.0778
     20 H10         1.1686    1.6725   -1.1448 H         1 <0>         0.0778
     21 H11         2.8587    1.1432   -1.2752 H         1 <0>         0.0778
     22 H12        -0.7437    0.8661    0.8827 H         1 <0>         0.0752
     23 H13        -0.7484    0.8882   -0.9020 H         1 <0>         0.0752
     24 H14        -4.4201   -1.0374    0.8909 H         1 <0>         0.0342
     25 H15        -4.4340   -1.0125   -0.9064 H         1 <0>         0.0342
     26 H16        -5.2588    0.2604    0.0167 H         1 <0>         0.0342
@<TRIPOS>BOND
     1    1    8 1
     2    1    9 1
     3    2    9 2
     4    3    4 1
     5    3    5 1
     6    3    6 1
     7    3    7 1
     8    4    8 1
     9    4   11 1
    10    4   12 1
    11    5   13 1
    12    5   14 1
    13    5   15 1
    14    6   16 1
    15    6   17 1
    16    6   18 1
    17    7   19 1
    18    7   20 1
    19    7   21 1
    20    8   22 1
    21    8   23 1
    22    9   10 1
    23   10   24 1
    24   10   25 1
    25   10   26 1
