@<TRIPOS>MOLECULE
DB03255
   13    13     0     0     0
SMALL
USER_CHARGES

@<TRIPOS>ATOM
      1 O1         -2.3999    0.7035    0.0003 O.3       1 <0>        -0.5068
      2 C1         -1.0834    0.3579   -0.0004 C.ar      1 <0>         0.1169
      3 C2         -0.7156   -0.9876   -0.0003 C.ar      1 <0>        -0.0202
      4 C3         -0.1022    1.3492   -0.0002 C.ar      1 <0>        -0.0202
      5 C4          0.6336   -1.3418   -0.0000 C.ar      1 <0>        -0.0583
      6 C5          1.2470    0.9950   -0.0001 C.ar      1 <0>        -0.0583
      7 C6          1.6149   -0.3505    0.0001 C.ar      1 <0>        -0.0615
      8 H1         -1.4703   -1.7694   -0.0003 H         1 <0>         0.0654
      9 H2         -0.3825    2.3990   -0.0001 H         1 <0>         0.0654
     10 H3          0.9202   -2.3893    0.0002 H         1 <0>         0.0619
     11 H4          2.0111    1.7669    0.0001 H         1 <0>         0.0619
     12 H5          2.6654   -0.6262    0.0003 H         1 <0>         0.0618
     13 H6         -2.9382   -0.1065    0.0004 H         1 <0>         0.2921
@<TRIPOS>BOND
     1    1    2 1
     2    1   13 1
     3    2    3 ar
     4    2    4 ar
     5    3    5 ar
     6    3    8 1
     7    4    6 ar
     8    4    9 1
     9    5    7 ar
    10    5   10 1
    11    6    7 ar
    12    6   11 1
    13    7   12 1
