@<TRIPOS>MOLECULE
DB03843
    4     3     0     0     0
SMALL
USER_CHARGES

@<TRIPOS>ATOM
      1 O1          1.2123   -0.0001   -0.0000 O.2       1 <0>        -0.3047
      2 C1         -0.0123    0.0000    0.0000 C.2       1 <0>         0.1071
      3 H1         -0.6001   -0.9319   -0.0000 H         1 <0>         0.0988
      4 H2         -0.5999    0.9319   -0.0000 H         1 <0>         0.0988
@<TRIPOS>BOND
     1    1    2 2
     2    2    3 1
     3    2    4 1
