@<TRIPOS>MOLECULE
DB03619
   68    71     0     0     0
SMALL
USER_CHARGES

@<TRIPOS>ATOM
      1 O1         -0.4325   -1.7149   -1.2629 O.3       1 <0>        -0.3912
      2 O2          5.5042   -1.1335   -2.6046 O.3       1 <0>        -0.3918
      3 O3         -7.4985   -0.9941    1.0904 O.3       1 <0>        -0.4806
      4 O4         -6.5377    1.0590    0.9552 O.2       1 <0>        -0.2510
      5 C1         -1.2065    0.0832    0.1967 C.3       1 <0>         0.0000
      6 C2         -0.2367    1.1090   -0.4370 C.3       1 <0>        -0.0299
      7 C3          1.1160    1.1776    0.2833 C.3       1 <0>        -0.0342
      8 C4          1.7867   -0.2338    0.2394 C.3       1 <0>        -0.0299
      9 C5          3.2069   -0.2323    0.9229 C.3       1 <0>        -0.0259
     10 C6         -2.4413    0.3324   -0.7098 C.3       1 <0>        -0.0304
     11 C7         -0.5678   -1.3176    0.1021 C.3       1 <0>         0.0614
     12 C8          0.8281   -1.3423    0.7619 C.3       1 <0>        -0.0227
     13 C9          4.0974    0.8788    0.2708 C.3       1 <0>        -0.0330
     14 C10        -1.0752    2.3807   -0.5469 C.3       1 <0>        -0.0491
     15 C11         2.0240    2.2463   -0.3394 C.3       1 <0>        -0.0494
     16 C12        -2.4983    1.8721   -0.8396 C.3       1 <0>        -0.0491
     17 C13         3.4154    2.2567    0.2861 C.3       1 <0>        -0.0494
     18 C14         3.9389   -1.5985    0.7777 C.3       1 <0>        -0.0448
     19 C15        -1.5460    0.3836    1.6817 C.3       1 <0>        -0.0567
     20 C16        -3.7572   -0.2727   -0.2423 C.3       1 <0>        -0.0400
     21 C17         4.5421    0.5207   -1.1633 C.3       1 <0>        -0.0235
     22 C18         3.0915    0.0319    2.4469 C.3       1 <0>        -0.0590
     23 C19         4.3441   -1.9359   -0.6514 C.3       1 <0>        -0.0263
     24 C20         5.2245   -0.8406   -1.2396 C.3       1 <0>         0.0555
     25 C21        -4.8901    0.0983   -1.2212 C.3       1 <0>        -0.0401
     26 C22        -3.6101   -1.7895   -0.0817 C.3       1 <0>        -0.0621
     27 C23        -6.2401   -0.5287   -0.8674 C.3       1 <0>         0.0450
     28 C24        -6.7543   -0.0422    0.4689 C.2       1 <0>         0.3047
     29 H1         -0.0238    0.8018   -1.4741 H         1 <0>         0.0310
     30 H2          0.9449    1.4704    1.3240 H         1 <0>         0.0306
     31 H3          1.9398   -0.4634   -0.8238 H         1 <0>         0.0310
     32 H4         -2.2273   -0.0580   -1.7161 H         1 <0>         0.0310
     33 H5         -1.1529   -2.0870    0.6031 H         1 <0>         0.0599
     34 H6          1.2753   -2.3221    0.5617 H         1 <0>         0.0293
     35 H7          0.7136   -1.2618    1.8470 H         1 <0>         0.0293
     36 H8          5.0181    0.9711    0.8655 H         1 <0>         0.0307
     37 H9         -0.7171    3.0380   -1.3459 H         1 <0>         0.0268
     38 H10        -1.0589    2.9551    0.3860 H         1 <0>         0.0268
     39 H11         1.5767    3.2388   -0.2066 H         1 <0>         0.0268
     40 H12         2.1035    2.0890   -1.4215 H         1 <0>         0.0268
     41 H13        -3.2005    2.3250   -0.1303 H         1 <0>         0.0268
     42 H14        -2.8127    2.1644   -1.8478 H         1 <0>         0.0268
     43 H15         4.0409    2.9895   -0.2384 H         1 <0>         0.0268
     44 H16         3.3390    2.6160    1.3194 H         1 <0>         0.0268
     45 H17         3.3364   -2.4157    1.1885 H         1 <0>         0.0271
     46 H18         4.8536   -1.5797    1.3875 H         1 <0>         0.0271
     47 H19        -2.0701    1.3360    1.8082 H         1 <0>         0.0236
     48 H20        -2.1848   -0.3942    2.1117 H         1 <0>         0.0236
     49 H21        -0.6570    0.4316    2.3158 H         1 <0>         0.0236
     50 H22        -4.0247    0.1399    0.7372 H         1 <0>         0.0301
     51 H23         3.6973    0.5371   -1.8618 H         1 <0>         0.0293
     52 H24         5.2342    1.2858   -1.5393 H         1 <0>         0.0293
     53 H25         2.5472    0.9494    2.6823 H         1 <0>         0.0235
     54 H26         2.5854   -0.7924    2.9603 H         1 <0>         0.0235
     55 H27         4.0849    0.1254    2.9016 H         1 <0>         0.0235
     56 H28         4.8884   -2.8883   -0.6660 H         1 <0>         0.0290
     57 H29         3.4618   -2.0977   -1.2819 H         1 <0>         0.0290
     58 H30         6.1810   -0.7998   -0.7051 H         1 <0>         0.0593
     59 H31        -0.0388   -2.6037   -1.2741 H         1 <0>         0.2098
     60 H32        -5.0126    1.1869   -1.2630 H         1 <0>         0.0273
     61 H33        -4.6189   -0.2258   -2.2340 H         1 <0>         0.0273
     62 H34        -3.1167   -2.2501   -0.9427 H         1 <0>         0.0233
     63 H35        -3.0814   -2.0408    0.8377 H         1 <0>         0.0233
     64 H36        -4.5696   -2.2947    0.0442 H         1 <0>         0.0233
     65 H37         5.9428   -2.0009   -2.6340 H         1 <0>         0.2098
     66 H38        -6.9805   -0.2221   -1.6164 H         1 <0>         0.0378
     67 H39        -6.2121   -1.6201   -0.8963 H         1 <0>         0.0378
     68 H40        -7.8319   -0.6866    1.9603 H         1 <0>         0.2951
@<TRIPOS>BOND
     1    1   11 1
     2    1   59 1
     3    2   24 1
     4    2   65 1
     5    3   28 1
     6    3   68 1
     7    4   28 2
     8    5    6 1
     9    5   10 1
    10    5   11 1
    11    5   19 1
    12    6    7 1
    13    6   14 1
    14    6   29 1
    15    7    8 1
    16    7   15 1
    17    7   30 1
    18    8    9 1
    19    8   12 1
    20    8   31 1
    21    9   13 1
    22    9   18 1
    23    9   22 1
    24   10   16 1
    25   10   20 1
    26   10   32 1
    27   11   12 1
    28   11   33 1
    29   12   34 1
    30   12   35 1
    31   13   17 1
    32   13   21 1
    33   13   36 1
    34   14   16 1
    35   14   37 1
    36   14   38 1
    37   15   17 1
    38   15   39 1
    39   15   40 1
    40   16   41 1
    41   16   42 1
    42   17   43 1
    43   17   44 1
    44   18   23 1
    45   18   45 1
    46   18   46 1
    47   19   47 1
    48   19   48 1
    49   19   49 1
    50   20   25 1
    51   20   26 1
    52   20   50 1
    53   21   24 1
    54   21   51 1
    55   21   52 1
    56   22   53 1
    57   22   54 1
    58   22   55 1
    59   23   24 1
    60   23   56 1
    61   23   57 1
    62   24   58 1
    63   25   27 1
    64   25   60 1
    65   25   61 1
    66   26   62 1
    67   26   63 1
    68   26   64 1
    69   27   28 1
    70   27   66 1
    71   27   67 1
