@<TRIPOS>MOLECULE
DB03796
   50    49     0     0     0
SMALL
USER_CHARGES

@<TRIPOS>ATOM
      1 O1        -10.6542   -0.5140    0.1001 O.3       1 <0>        -0.4806
      2 O2         -9.6082    1.4970   -0.0382 O.2       1 <0>        -0.2510
      3 C1          0.6860    0.4829   -0.0674 C.3       1 <0>        -0.0531
      4 C2         -0.5687   -0.3922   -0.0751 C.3       1 <0>        -0.0531
      5 C3          1.9544   -0.3741   -0.0817 C.3       1 <0>        -0.0531
      6 C4         -1.8759    0.4061   -0.0476 C.3       1 <0>        -0.0531
      7 C5          3.2111    0.4967   -0.0375 C.3       1 <0>        -0.0531
      8 C6         -3.1646   -0.4203    0.0309 C.3       1 <0>        -0.0531
      9 C7          4.5138   -0.3074   -0.0881 C.3       1 <0>        -0.0531
     10 C8         -4.4386    0.4284    0.0058 C.3       1 <0>        -0.0530
     11 C9          5.8094    0.5027    0.0382 C.3       1 <0>        -0.0531
     12 C10        -5.6915   -0.4484    0.0067 C.3       1 <0>        -0.0526
     13 C11         7.0729   -0.3618    0.0431 C.3       1 <0>        -0.0533
     14 C12        -7.0021    0.3478    0.0213 C.3       1 <0>        -0.0430
     15 C13         8.3667    0.4564    0.0797 C.3       1 <0>        -0.0559
     16 C14        -8.2666   -0.5114    0.0339 C.3       1 <0>         0.0448
     17 C15         9.6275   -0.3939    0.0544 C.3       1 <0>        -0.0653
     18 C16        -9.5545    0.2749    0.0158 C.2       1 <0>         0.3047
     19 H1          0.6766    1.1462   -0.9406 H         1 <0>         0.0265
     20 H2          0.6810    1.1206    0.8247 H         1 <0>         0.0265
     21 H3         -0.5626   -1.0327   -0.9658 H         1 <0>         0.0265
     22 H4         -0.5462   -1.0611    0.7943 H         1 <0>         0.0265
     23 H5          1.9520   -1.0548    0.7782 H         1 <0>         0.0265
     24 H6          1.9694   -0.9943   -0.9859 H         1 <0>         0.0265
     25 H7         -1.9159    1.0377   -0.9442 H         1 <0>         0.0265
     26 H8         -1.8518    1.0904    0.8102 H         1 <0>         0.0265
     27 H9          3.1983    1.2018   -0.8777 H         1 <0>         0.0265
     28 H10         3.2000    1.0982    0.8798 H         1 <0>         0.0265
     29 H11        -3.1471   -1.0244    0.9462 H         1 <0>         0.0265
     30 H12        -3.1819   -1.1231   -0.8114 H         1 <0>         0.0265
     31 H13         4.4930   -1.0522    0.7181 H         1 <0>         0.0265
     32 H14         4.5418   -0.8728   -1.0283 H         1 <0>         0.0265
     33 H15        -4.4403    1.0647   -0.8872 H         1 <0>         0.0265
     34 H16        -4.4516    1.0939    0.8771 H         1 <0>         0.0265
     35 H17         5.8606    1.2170   -0.7926 H         1 <0>         0.0265
     36 H18         5.7756    1.0935    0.9616 H         1 <0>         0.0265
     37 H19        -5.6700   -1.1081    0.8831 H         1 <0>         0.0265
     38 H20        -5.6799   -1.0978   -0.8774 H         1 <0>         0.0265
     39 H21         7.0461   -1.0365    0.9074 H         1 <0>         0.0265
     40 H22         7.0775   -0.9951   -0.8526 H         1 <0>         0.0265
     41 H23        -7.0258    1.0076   -0.8555 H         1 <0>         0.0270
     42 H24        -7.0104    1.0077    0.8984 H         1 <0>         0.0270
     43 H25         8.3762    1.0780    0.9829 H         1 <0>         0.0263
     44 H26         8.3871    1.1410   -0.7769 H         1 <0>         0.0263
     45 H27        -8.2672   -1.1681   -0.8434 H         1 <0>         0.0377
     46 H28        -8.2673   -1.1346    0.9355 H         1 <0>         0.0377
     47 H29         9.6610   -1.0666    0.9171 H         1 <0>         0.0230
     48 H30        10.5168    0.2432    0.0833 H         1 <0>         0.0230
     49 H31         9.6708   -1.0000   -0.8558 H         1 <0>         0.0230
     50 H32       -11.4826    0.0115    0.1027 H         1 <0>         0.2951
@<TRIPOS>BOND
     1    1   18 1
     2    1   50 1
     3    2   18 2
     4    3    4 1
     5    3    5 1
     6    3   19 1
     7    3   20 1
     8    4    6 1
     9    4   21 1
    10    4   22 1
    11    5    7 1
    12    5   23 1
    13    5   24 1
    14    6    8 1
    15    6   25 1
    16    6   26 1
    17    7    9 1
    18    7   27 1
    19    7   28 1
    20    8   10 1
    21    8   29 1
    22    8   30 1
    23    9   11 1
    24    9   31 1
    25    9   32 1
    26   10   12 1
    27   10   33 1
    28   10   34 1
    29   11   13 1
    30   11   35 1
    31   11   36 1
    32   12   14 1
    33   12   37 1
    34   12   38 1
    35   13   15 1
    36   13   39 1
    37   13   40 1
    38   14   16 1
    39   14   41 1
    40   14   42 1
    41   15   17 1
    42   15   43 1
    43   15   44 1
    44   16   18 1
    45   16   45 1
    46   16   46 1
    47   17   47 1
    48   17   48 1
    49   17   49 1
