@<TRIPOS>MOLECULE
DB03756
   56    55     0     0     0
SMALL
USER_CHARGES

@<TRIPOS>ATOM
      1 O1          3.5770   -2.0230    1.0359 O.3       1 <0>        -0.4806
      2 O2          4.7880   -1.2064    2.7769 O.2       1 <0>        -0.2510
      3 C1          3.0315    1.1576    1.3735 C.3       1 <0>        -0.0247
      4 C2          0.8093    2.2380   -0.5753 C.3       1 <0>        -0.0165
      5 C3          1.6761   -0.1790   -2.1292 C.3       1 <0>        -0.0165
      6 C4         -0.7544   -1.8936   -1.6483 C.3       1 <0>        -0.0165
      7 C5          4.2064    0.2760    0.9587 C.3       1 <0>         0.0482
      8 C6          3.0268    2.4752    0.6508 C.2       1 <0>        -0.0871
      9 C7         -0.3680   -1.7730    1.5001 C.3       1 <0>        -0.0165
     10 C8          2.0792    2.9348   -0.1815 C.2       1 <0>        -0.0842
     11 C9          0.6821    2.1192   -2.0653 C.2       1 <0>        -0.0839
     12 C10         1.0693    1.0391   -2.7608 C.2       1 <0>        -0.0839
     13 C11         1.3603   -1.4192   -2.9135 C.2       1 <0>        -0.0839
     14 C12        -2.1026    0.8643    1.8652 C.3       1 <0>        -0.0165
     15 C13         0.2774   -2.1812   -2.6975 C.2       1 <0>        -0.0839
     16 C14        -0.8816   -3.0187   -0.6642 C.2       1 <0>        -0.0839
     17 C15        -0.7190   -2.9710    0.6671 C.2       1 <0>        -0.0839
     18 C16        -1.4200   -1.5009    2.5373 C.2       1 <0>        -0.0839
     19 C17        -2.1468   -0.3839    2.6967 C.2       1 <0>        -0.0839
     20 C18        -3.4493    1.5251    1.8019 C.2       1 <0>        -0.0842
     21 C19        -4.1745    0.2506   -0.2290 C.3       1 <0>        -0.0376
     22 C20        -4.3734    1.2524    0.8689 C.2       1 <0>        -0.0879
     23 C21         4.2368   -1.0397    1.6969 C.2       1 <0>         0.3050
     24 C22        -3.5640    0.8936   -1.4642 C.3       1 <0>        -0.0618
     25 H1          2.0996    0.6014    1.2439 H         1 <0>         0.0312
     26 H2          3.0993    1.3625    2.4497 H         1 <0>         0.0312
     27 H3         -0.0279    2.8586   -0.2280 H         1 <0>         0.0350
     28 H4          0.6581    1.2855   -0.0691 H         1 <0>         0.0350
     29 H5          2.7670   -0.0586   -2.1563 H         1 <0>         0.0350
     30 H6          1.4295   -0.3201   -1.0760 H         1 <0>         0.0350
     31 H7         -1.7202   -1.8061   -2.1637 H         1 <0>         0.0350
     32 H8         -0.6189   -0.9302   -1.1568 H         1 <0>         0.0350
     33 H9          5.1615    0.7820    1.1478 H         1 <0>         0.0380
     34 H10         4.1846    0.0715   -0.1182 H         1 <0>         0.0380
     35 H11         3.8835    3.1200    0.8387 H         1 <0>         0.0569
     36 H12         0.5715   -1.9910    2.0234 H         1 <0>         0.0350
     37 H13        -0.1647   -0.8895    0.8940 H         1 <0>         0.0350
     38 H14         2.2307    3.9269   -0.6046 H         1 <0>         0.0572
     39 H15         0.2816    2.9732   -2.6058 H         1 <0>         0.0572
     40 H16         0.9813    1.0698   -3.8445 H         1 <0>         0.0572
     41 H17         2.0436   -1.6966   -3.7122 H         1 <0>         0.0572
     42 H18        -1.7112    0.6728    0.8629 H         1 <0>         0.0350
     43 H19        -1.4063    1.5715    2.3326 H         1 <0>         0.0350
     44 H20         0.1237   -3.0526   -3.3299 H         1 <0>         0.0572
     45 H21        -1.1464   -3.9863   -1.0897 H         1 <0>         0.0572
     46 H22        -0.8455   -3.9056    1.2122 H         1 <0>         0.0572
     47 H23        -1.5784   -2.2970    3.2642 H         1 <0>         0.0572
     48 H24        -2.8216   -0.3670    3.5526 H         1 <0>         0.0572
     49 H25        -3.6821    2.2613    2.5672 H         1 <0>         0.0572
     50 H26        -3.5576   -0.5946    0.0933 H         1 <0>         0.0305
     51 H27        -5.1508   -0.1767   -0.4870 H         1 <0>         0.0305
     52 H28        -5.3187    1.7877    0.8939 H         1 <0>         0.0569
     53 H29        -2.5666    1.2966   -1.2618 H         1 <0>         0.0233
     54 H30        -4.1912    1.7117   -1.8349 H         1 <0>         0.0233
     55 H31        -3.4704    0.1543   -2.2659 H         1 <0>         0.0233
     56 H32         3.5966   -2.8720    1.5268 H         1 <0>         0.2951
@<TRIPOS>BOND
     1    1   23 1
     2    1   56 1
     3    2   23 2
     4    3    7 1
     5    3    8 1
     6    3   25 1
     7    3   26 1
     8    4   10 1
     9    4   11 1
    10    4   27 1
    11    4   28 1
    12    5   12 1
    13    5   13 1
    14    5   29 1
    15    5   30 1
    16    6   15 1
    17    6   16 1
    18    6   31 1
    19    6   32 1
    20    7   23 1
    21    7   33 1
    22    7   34 1
    23    8   10 2
    24    8   35 1
    25    9   17 1
    26    9   18 1
    27    9   36 1
    28    9   37 1
    29   10   38 1
    30   11   12 2
    31   11   39 1
    32   12   40 1
    33   13   15 2
    34   13   41 1
    35   14   19 1
    36   14   20 1
    37   14   42 1
    38   14   43 1
    39   15   44 1
    40   16   17 2
    41   16   45 1
    42   17   46 1
    43   18   19 2
    44   18   47 1
    45   19   48 1
    46   20   22 2
    47   20   49 1
    48   21   22 1
    49   21   24 1
    50   21   50 1
    51   21   51 1
    52   22   52 1
    53   24   53 1
    54   24   54 1
    55   24   55 1
