@<TRIPOS>MOLECULE
DB03175
   12    11     0     0     0
SMALL
USER_CHARGES

@<TRIPOS>ATOM
      1 O1         -2.2136   -0.0671    0.2864 O.3       1 <0>        -0.3950
      2 C1          0.1334   -0.5144    0.1433 C.3       1 <0>        -0.0326
      3 C2         -0.9531    0.5462    0.0551 C.3       1 <0>         0.0440
      4 C3          1.5156    0.0728   -0.0795 C.3       1 <0>        -0.0632
      5 H1          0.0909   -1.0046    1.1233 H         1 <0>         0.0285
      6 H2         -0.0570   -1.3021   -0.5956 H         1 <0>         0.0285
      7 H3         -0.8079    1.3217    0.8134 H         1 <0>         0.0557
      8 H4         -0.9712    1.0236   -0.9298 H         1 <0>         0.0557
      9 H5          1.7437    0.8348    0.6725 H         1 <0>         0.0230
     10 H6          2.2765   -0.7108   -0.0108 H         1 <0>         0.0230
     11 H7          1.5907    0.5336   -1.0697 H         1 <0>         0.0230
     12 H8         -2.3480   -0.7337   -0.4087 H         1 <0>         0.2094
@<TRIPOS>BOND
     1    1    3 1
     2    1   12 1
     3    2    3 1
     4    2    4 1
     5    2    5 1
     6    2    6 1
     7    3    7 1
     8    3    8 1
     9    4    9 1
    10    4   10 1
    11    4   11 1
