@<TRIPOS>MOLECULE
DB03526
 22 23 0 0 0
SMALL
GASTEIGER

@<TRIPOS>ATOM
      1 C           0.9552    2.8533    0.0000 C.ar    1  UNL1        0.1557
      2 C          -0.0916   -0.5048    0.0000 C.3     1  UNL1        0.1418
      3 C          -0.5765   -1.1722    0.0000 C.ar    1  UNL1       -0.0027
      4 C          -0.2409   -1.9259    0.0000 C.ar    1  UNL1        0.0003
      5 C          -0.7259   -2.5934    0.0000 C.ar    1  UNL1        0.0366
      6 C          -1.5463   -2.5071    0.0000 C.ar    1  UNL1        0.1387
      7 C          -1.8819   -1.7534    0.0000 C.ar    1  UNL1        0.0366
      8 C          -1.3970   -1.0860    0.0000 C.ar    1  UNL1        0.0003
      9 O           0.9552    4.5033    0.0000 O.2     1  UNL1       -0.1498
     10 O           0.1302    3.6783    0.0000 O.2     1  UNL1       -0.1498
     11 N           1.7802    3.6783    0.0000 N.3     1  UNL1        0.0397
     12 S           0.9552    3.6783    0.0000 S.O2    1  UNL1        0.0992
     13 C           1.6226    2.3684    0.0000 C.ar    1  UNL1        0.0286
     14 C           1.3677    1.5838    0.0000 C.ar    1  UNL1        0.0286
     15 C           0.5427    1.5838    0.0000 C.ar    1  UNL1        0.1542
     16 S           0.2878    2.3684    0.0000 S.2     1  UNL1       -0.0473
     17 S           0.0578    0.9163    0.0000 S.O2    1  UNL1        0.0829
     18 O          -0.6097    1.4012    0.0000 O.2     1  UNL1       -0.1511
     19 O           0.7252    0.4314    0.0000 O.2     1  UNL1       -0.1511
     20 N          -0.4271    0.2489    0.0000 N.3     1  UNL1       -0.0725
     21 O          -2.0313   -3.1746    0.0000 O.3     1  UNL1       -0.4714
     22 C          -1.6957   -3.9282    0.0000 C.3     1  UNL1        0.2525
@<TRIPOS>BOND
     1     1    12    1
     2     1    13   ar
     3     1    16   ar
     4     2     3    1
     5     2    20    1
     6     3     4   ar
     7     3     8   ar
     8     4     5   ar
     9     5     6   ar
    10     6     7   ar
    11     6    21    1
    12     7     8   ar
    13     9    12    2
    14    10    12    2
    15    11    12    1
    16    13    14   ar
    17    14    15   ar
    18    15    16   ar
    19    15    17    1
    20    17    18    2
    21    17    19    2
    22    17    20    1
    23    21    22    1
