@<TRIPOS>MOLECULE
DB03808
   52    53     0     0     0
SMALL
USER_CHARGES

@<TRIPOS>ATOM
      1 O1         -4.1733    1.0751   -1.1349 O.3       1 <0>        -0.4920
      2 O2          4.1734   -1.0715   -1.1387 O.3       1 <0>        -0.4920
      3 N1         -9.5165   -1.4134    1.4853 N.pl3     1 <0>        -0.2466
      4 N2          9.5165    1.4083    1.4899 N.pl3     1 <0>        -0.2466
      5 N3         -9.7316    0.8598    1.9830 N.2       1 <0>        -0.0994
      6 N4          9.7312   -0.8664    1.9809 N.2       1 <0>        -0.0994
      7 C1         -0.6889   -0.3299   -1.1598 C.3       1 <0>        -0.0499
      8 C2          0.6891    0.3341   -1.1594 C.3       1 <0>        -0.0499
      9 C3         -1.8070    0.7101   -1.1752 C.3       1 <0>        -0.0186
     10 C4          1.8071   -0.7059   -1.1780 C.3       1 <0>        -0.0186
     11 C5         -3.1817    0.0575   -1.1336 C.3       1 <0>         0.0896
     12 C6          3.1818   -0.0538   -1.1346 C.3       1 <0>         0.0896
     13 C7         -5.3575    0.7856   -0.5082 C.ar      1 <0>         0.1205
     14 C8          5.3574   -0.7841   -0.5108 C.ar      1 <0>         0.1205
     15 C9         -6.1006    1.8066    0.0844 C.ar      1 <0>        -0.0191
     16 C10         6.1004   -1.8070    0.0787 C.ar      1 <0>        -0.0191
     17 C11        -5.8205   -0.5294   -0.4649 C.ar      1 <0>        -0.0191
     18 C12         5.8207    0.5309   -0.4635 C.ar      1 <0>        -0.0191
     19 C13        -7.7697    0.1973    0.7638 C.ar      1 <0>         0.0649
     20 C14         7.7695   -0.1999    0.7632 C.ar      1 <0>         0.0649
     21 C15        -7.3068    1.5124    0.7203 C.ar      1 <0>        -0.0434
     22 C16         7.3063   -1.5147    0.7158 C.ar      1 <0>        -0.0434
     23 C17        -7.0264   -0.8236    0.1710 C.ar      1 <0>        -0.0434
     24 C18         7.0266    0.8228    0.1735 C.ar      1 <0>        -0.0434
     25 C19        -9.0275   -0.1096    1.4260 C.2       1 <0>         0.3081
     26 C20         9.0272    0.1049    1.4267 C.2       1 <0>         0.3081
     27 H1         -0.7837   -0.9823   -2.0363 H         1 <0>         0.0266
     28 H2         -0.7877   -0.9657   -0.2715 H         1 <0>         0.0266
     29 H3          0.7885    0.9677   -0.2697 H         1 <0>         0.0266
     30 H4          0.7835    0.9885   -2.0345 H         1 <0>         0.0266
     31 H5         -1.7290    1.3394   -2.0705 H         1 <0>         0.0298
     32 H6         -1.7035    1.3905   -0.3205 H         1 <0>         0.0298
     33 H7          1.7288   -1.3327   -2.0751 H         1 <0>         0.0298
     34 H8          1.7036   -1.3888   -0.3253 H         1 <0>         0.0298
     35 H9         -3.2336   -0.5568   -0.2253 H         1 <0>         0.0696
     36 H10        -3.3213   -0.5812   -2.0134 H         1 <0>         0.0696
     37 H11         3.2339    0.5582   -0.2246 H         1 <0>         0.0696
     38 H12         3.3216    0.5874   -2.0126 H         1 <0>         0.0696
     39 H13        -5.7446    2.8328    0.0532 H         1 <0>         0.0654
     40 H14         5.7442   -2.8328    0.0445 H         1 <0>         0.0654
     41 H15        -5.2865   -1.3483   -0.9379 H         1 <0>         0.0654
     42 H16         5.2869    1.3511   -0.9343 H         1 <0>         0.0654
     43 H17        -7.8605    2.3311    1.1715 H         1 <0>         0.0627
     44 H18         7.8599   -2.3349    1.1646 H         1 <0>         0.0627
     45 H19        -7.3435   -1.8606    0.1702 H         1 <0>         0.0627
     46 H20         7.3438    1.8598    0.1758 H         1 <0>         0.0627
     47 H21        -9.0418   -2.2134    1.0860 H         1 <0>         0.2884
     48 H22       -10.3973   -1.6072    1.9505 H         1 <0>         0.2884
     49 H23         9.0419    2.2096    1.0930 H         1 <0>         0.2884
     50 H24        10.3974    1.6006    1.9558 H         1 <0>         0.2884
     51 H25       -10.5776    0.4486    2.3931 H         1 <0>         0.3633
     52 H26        10.5771   -0.4565    2.3924 H         1 <0>         0.3633
@<TRIPOS>BOND
     1    1   11 1
     2    1   13 1
     3    2   12 1
     4    2   14 1
     5    3   25 1
     6    3   47 1
     7    3   48 1
     8    4   26 1
     9    4   49 1
    10    4   50 1
    11    5   25 2
    12    5   51 1
    13    6   26 2
    14    6   52 1
    15    7    8 1
    16    7    9 1
    17    7   27 1
    18    7   28 1
    19    8   10 1
    20    8   29 1
    21    8   30 1
    22    9   11 1
    23    9   31 1
    24    9   32 1
    25   10   12 1
    26   10   33 1
    27   10   34 1
    28   11   35 1
    29   11   36 1
    30   12   37 1
    31   12   38 1
    32   13   15 ar
    33   13   17 ar
    34   14   16 ar
    35   14   18 ar
    36   15   21 ar
    37   15   39 1
    38   16   22 ar
    39   16   40 1
    40   17   23 ar
    41   17   41 1
    42   18   24 ar
    43   18   42 1
    44   19   21 ar
    45   19   23 ar
    46   19   25 1
    47   20   22 ar
    48   20   24 ar
    49   20   26 1
    50   21   43 1
    51   22   44 1
    52   23   45 1
    53   24   46 1
