@<TRIPOS>MOLECULE
DB03585
   44    46     0     0     0
SMALL
USER_CHARGES

@<TRIPOS>ATOM
      1 O1          1.3165    1.0414   -2.6388 O.2       1 <0>        -0.2729
      2 O2          0.8448   -3.0913   -0.4133 O.2       1 <0>        -0.2729
      3 O3         -2.5115    4.8767    0.8574 O.3       1 <0>        -0.5068
      4 N1         -0.2922    0.1535   -1.1249 N.am      1 <0>        -0.1804
      5 N2         -0.4897   -1.1233   -0.5454 N.am      1 <0>        -0.1804
      6 C1          1.4961   -1.1982   -1.7594 C.3       1 <0>         0.1156
      7 C2          2.9091   -1.0566   -1.2230 C.3       1 <0>        -0.0333
      8 C3          0.8404    0.1484   -1.9535 C.2       1 <0>         0.2486
      9 C4          0.6179   -1.9499   -0.7870 C.2       1 <0>         0.2486
     10 C5          2.9277   -0.3296    0.1213 C.3       1 <0>        -0.0522
     11 C6          4.3486   -0.2191    0.6739 C.3       1 <0>        -0.0559
     12 C7         -0.8603    1.3619   -0.6184 C.ar      1 <0>         0.0569
     13 C8         -1.7616   -1.6401   -0.1529 C.ar      1 <0>         0.0566
     14 C9          4.3677    0.4736    2.0272 C.3       1 <0>        -0.0653
     15 C10        -0.7594    2.5457   -1.3523 C.ar      1 <0>        -0.0352
     16 C11        -1.5177    1.3641    0.6138 C.ar      1 <0>        -0.0352
     17 C12        -1.8397   -2.8204    0.5896 C.ar      1 <0>        -0.0386
     18 C13        -2.9322   -0.9669   -0.5097 C.ar      1 <0>        -0.0386
     19 C14        -1.3131    3.7261   -0.8564 C.ar      1 <0>        -0.0184
     20 C15        -2.0715    2.5444    1.1097 C.ar      1 <0>        -0.0184
     21 C16        -3.0821   -3.3251    0.9735 C.ar      1 <0>        -0.0599
     22 C17        -4.1745   -1.4718   -0.1256 C.ar      1 <0>        -0.0599
     23 C18        -1.9693    3.7255    0.3746 C.ar      1 <0>         0.1170
     24 C19        -4.2494   -2.6508    0.6159 C.ar      1 <0>        -0.0616
     25 H1          1.4847   -1.7266   -2.7189 H         1 <0>         0.0491
     26 H2          3.5275   -0.5066   -1.9430 H         1 <0>         0.0277
     27 H3          3.3600   -2.0498   -1.1059 H         1 <0>         0.0277
     28 H4          2.5139    0.6803    0.0198 H         1 <0>         0.0266
     29 H5          2.3108   -0.8594    0.8562 H         1 <0>         0.0266
     30 H6          4.9782    0.3411   -0.0270 H         1 <0>         0.0263
     31 H7          4.7873   -1.2184    0.7774 H         1 <0>         0.0263
     32 H8          3.7747   -0.0815    2.7609 H         1 <0>         0.0230
     33 H9          3.9627    1.4880    1.9545 H         1 <0>         0.0230
     34 H10         5.3934    0.5436    2.4027 H         1 <0>         0.0230
     35 H11        -0.3066    2.5946   -2.3355 H         1 <0>         0.0638
     36 H12        -1.5538    0.4985    1.2666 H         1 <0>         0.0638
     37 H13        -0.9652   -3.3581    0.9366 H         1 <0>         0.0637
     38 H14        -2.9380   -0.0934   -1.1528 H         1 <0>         0.0637
     39 H15        -1.2405    4.6409   -1.4382 H         1 <0>         0.0655
     40 H16        -2.5647    2.5350    2.0782 H         1 <0>         0.0655
     41 H17        -3.1409   -4.2376    1.5597 H         1 <0>         0.0618
     42 H18        -5.0849   -0.9568   -0.4188 H         1 <0>         0.0618
     43 H19        -5.2168   -3.0446    0.9135 H         1 <0>         0.0618
     44 H20        -2.9265    4.6929    1.7177 H         1 <0>         0.2921
@<TRIPOS>BOND
     1    1    8 2
     2    2    9 2
     3    3   23 1
     4    3   44 1
     5    4    5 1
     6    4    8 am
     7    4   12 1
     8    5    9 am
     9    5   13 1
    10    6    7 1
    11    6    8 1
    12    6    9 1
    13    6   25 1
    14    7   10 1
    15    7   26 1
    16    7   27 1
    17   10   11 1
    18   10   28 1
    19   10   29 1
    20   11   14 1
    21   11   30 1
    22   11   31 1
    23   12   15 ar
    24   12   16 ar
    25   13   17 ar
    26   13   18 ar
    27   14   32 1
    28   14   33 1
    29   14   34 1
    30   15   19 ar
    31   15   35 1
    32   16   20 ar
    33   16   36 1
    34   17   21 ar
    35   17   37 1
    36   18   22 ar
    37   18   38 1
    38   19   23 ar
    39   19   39 1
    40   20   23 ar
    41   20   40 1
    42   21   24 ar
    43   21   41 1
    44   22   24 ar
    45   22   42 1
    46   24   43 1
