@<TRIPOS>MOLECULE
DB03166
    8     7     0     0     0
SMALL
USER_CHARGES

@<TRIPOS>ATOM
      1 O1          1.3149    0.7091   -0.0003 O.3       1 <0>        -0.4808
      2 O2          0.8326   -1.5188    0.0001 O.2       1 <0>        -0.2513
      3 C1         -0.9530    0.1065    0.0002 C.3       1 <0>         0.0331
      4 C2          0.4709   -0.3515   -0.0008 C.2       1 <0>         0.3016
      5 H1         -1.1544    0.6899    0.9020 H         1 <0>         0.0342
      6 H2         -1.1523    0.7005   -0.8953 H         1 <0>         0.0342
      7 H3         -1.6139   -0.7651   -0.0062 H         1 <0>         0.0342
      8 H4          2.2552    0.4293    0.0002 H         1 <0>         0.2950
@<TRIPOS>BOND
     1    1    4 1
     2    1    8 1
     3    2    4 2
     4    3    4 1
     5    3    5 1
     6    3    6 1
     7    3    7 1
