@<TRIPOS>MOLECULE
DB04816
   26    28     0     0     0
SMALL
USER_CHARGES

@<TRIPOS>ATOM
      1 O1          0.0186   -2.4146    0.0010 O.2       1 <0>        -0.2864
      2 O2         -0.1774    2.9259    0.0017 O.2       1 <0>        -0.2866
      3 O3          2.5809   -2.4069   -0.0010 O.3       1 <0>        -0.5060
      4 O4         -2.5372   -2.5945    0.0012 O.3       1 <0>        -0.5060
      5 C1          1.2182   -0.3957   -0.0004 C.ar      1 <0>         0.0745
      6 C2         -1.3262   -0.4891   -0.0005 C.ar      1 <0>         0.0745
      7 C3          1.1671    0.9998   -0.0004 C.ar      1 <0>         0.0366
      8 C4         -1.3774    0.9064   -0.0009 C.ar      1 <0>         0.0366
      9 C5         -0.0267   -1.1911   -0.0007 C.2       1 <0>         0.2015
     10 C6         -0.1326    1.7020   -0.0003 C.2       1 <0>         0.1947
     11 C7          2.4564   -1.0490   -0.0003 C.ar      1 <0>         0.1283
     12 C8         -2.5134   -1.2313    0.0002 C.ar      1 <0>         0.1283
     13 C9          2.3542    1.7419    0.0001 C.ar      1 <0>        -0.0500
     14 C10        -2.6157    1.5598   -0.0011 C.ar      1 <0>        -0.0500
     15 C11         3.6370   -0.3055    0.0000 C.ar      1 <0>        -0.0194
     16 C12        -3.7451   -0.5762    0.0004 C.ar      1 <0>        -0.0194
     17 C13         3.5860    1.0868    0.0006 C.ar      1 <0>        -0.0576
     18 C14        -3.7962    0.8163   -0.0002 C.ar      1 <0>        -0.0576
     19 H1          2.3413    2.8286    0.0004 H         1 <0>         0.0625
     20 H2         -2.6825    2.6444   -0.0015 H         1 <0>         0.0625
     21 H3          4.6070   -0.7962    0.0002 H         1 <0>         0.0654
     22 H4         -4.6710   -1.1454    0.0012 H         1 <0>         0.0654
     23 H5          4.5065    1.6635    0.0010 H         1 <0>         0.0619
     24 H6         -4.7565    1.3239   -0.0000 H         1 <0>         0.0619
     25 H7          3.5227   -2.6491   -0.0010 H         1 <0>         0.2922
     26 H8         -1.6379   -2.9547    0.0000 H         1 <0>         0.2922
@<TRIPOS>BOND
     1    1    9 2
     2    2   10 2
     3    3   11 1
     4    3   25 1
     5    4   12 1
     6    4   26 1
     7    5    7 ar
     8    5    9 1
     9    5   11 ar
    10    6    8 ar
    11    6    9 1
    12    6   12 ar
    13    7   10 1
    14    7   13 ar
    15    8   10 1
    16    8   14 ar
    17   11   15 ar
    18   12   16 ar
    19   13   17 ar
    20   13   19 1
    21   14   18 ar
    22   14   20 1
    23   15   17 ar
    24   15   21 1
    25   16   18 ar
    26   16   22 1
    27   17   23 1
    28   18   24 1
