@<TRIPOS>MOLECULE
DB04861
   54    57     0     0     0
SMALL
USER_CHARGES

@<TRIPOS>ATOM
      1 F1         -7.8147   -2.0058    1.5256 F         1 <0>        -0.2055
      2 F2          7.8201    2.1133    1.3407 F         1 <0>        -0.2055
      3 O1         -3.3828    0.2454   -0.8258 O.3       1 <0>        -0.4859
      4 O2          3.3924   -0.3556   -0.7899 O.3       1 <0>        -0.4859
      5 O3         -2.3561    2.6173   -1.9029 O.3       1 <0>        -0.3869
      6 O4          2.3673   -2.8211   -1.6344 O.3       1 <0>        -0.3869
      7 N1          0.0047   -0.0601   -0.9081 N.3       1 <0>        -0.3109
      8 C1         -2.5923    1.1512   -0.0407 C.3       1 <0>         0.1274
      9 C2          2.6003   -1.1811    0.0777 C.3       1 <0>         0.1274
     10 C3         -1.6039    1.8237   -0.9856 C.3       1 <0>         0.1043
     11 C4          1.6136   -1.9422   -0.7995 C.3       1 <0>         0.1043
     12 C5         -3.4677    2.1895    0.6588 C.3       1 <0>        -0.0092
     13 C6          3.4743   -2.1467    0.8760 C.3       1 <0>        -0.0092
     14 C7         -0.7575    0.8250   -1.7782 C.3       1 <0>         0.0255
     15 C8          0.7684   -1.0254   -1.6870 C.3       1 <0>         0.0255
     16 C9         -4.4005    1.4809    1.6324 C.3       1 <0>        -0.0207
     17 C10         4.4054   -1.3470    1.7784 C.3       1 <0>        -0.0207
     18 C11        -5.0234    0.2786    0.9831 C.ar      1 <0>        -0.0029
     19 C12         5.0296   -0.2132    1.0167 C.ar      1 <0>        -0.0029
     20 C13        -4.4806   -0.2707   -0.1861 C.ar      1 <0>         0.1244
     21 C14         4.4889    0.2201   -0.2011 C.ar      1 <0>         0.1244
     22 C15        -6.1478   -0.3242    1.5621 C.ar      1 <0>        -0.0198
     23 C16         6.1529    0.4429    1.5367 C.ar      1 <0>        -0.0198
     24 C17        -5.0789   -1.3812   -0.7869 C.ar      1 <0>        -0.0169
     25 C18         5.0885    1.2673   -0.9056 C.ar      1 <0>        -0.0169
     26 C19        -6.7362   -1.4408    0.9673 C.ar      1 <0>         0.1239
     27 C20         6.7424    1.4967    0.8377 C.ar      1 <0>         0.1239
     28 C21        -6.2043   -1.9665   -0.2083 C.ar      1 <0>        -0.0230
     29 C22         6.2129    1.9059   -0.3843 C.ar      1 <0>        -0.0230
     30 H1         -2.0426    0.5661    0.7090 H         1 <0>         0.0759
     31 H2          2.0574   -0.5312    0.7759 H         1 <0>         0.0759
     32 H3         -0.9410    2.4960   -0.4262 H         1 <0>         0.0643
     33 H4          0.9615   -2.5607   -0.1706 H         1 <0>         0.0643
     34 H5         -2.8623    2.9303    1.1926 H         1 <0>         0.0305
     35 H6         -4.0900    2.7247   -0.0699 H         1 <0>         0.0305
     36 H7          2.8669   -2.8302    1.4796 H         1 <0>         0.0305
     37 H8          4.0902   -2.7543    0.2003 H         1 <0>         0.0305
     38 H9         -1.4041    0.2453   -2.4497 H         1 <0>         0.0450
     39 H10        -0.0813    1.3897   -2.4338 H         1 <0>         0.0450
     40 H11         1.4125   -0.5180   -2.4170 H         1 <0>         0.0450
     41 H12         0.0865   -1.6517   -2.2768 H         1 <0>         0.0450
     42 H13        -5.1743    2.1804    1.9688 H         1 <0>         0.0315
     43 H14        -3.8370    1.1502    2.5133 H         1 <0>         0.0315
     44 H15         5.1786   -2.0109    2.1818 H         1 <0>         0.0315
     45 H16         3.8406   -0.9327    2.6223 H         1 <0>         0.0315
     46 H17         0.6281    0.5055   -0.3345 H         1 <0>         0.1221
     47 H18        -2.5643    3.4603   -1.4656 H         1 <0>         0.2100
     48 H19         1.7352   -3.3302   -2.1700 H         1 <0>         0.2100
     49 H20        -6.5751    0.0772    2.4775 H         1 <0>         0.0650
     50 H21         6.5785    0.1322    2.4874 H         1 <0>         0.0650
     51 H22        -4.6690   -1.7993   -1.7026 H         1 <0>         0.0655
     52 H23         4.6805    1.5945   -1.8583 H         1 <0>         0.0655
     53 H24        -6.6653   -2.8330   -0.6727 H         1 <0>         0.0647
     54 H25         6.6748    2.7236   -0.9297 H         1 <0>         0.0647
@<TRIPOS>BOND
     1    1   26 1
     2    2   27 1
     3    3    8 1
     4    3   20 1
     5    4    9 1
     6    4   21 1
     7    5   10 1
     8    5   47 1
     9    6   11 1
    10    6   48 1
    11    7   14 1
    12    7   15 1
    13    7   46 1
    14    8   10 1
    15    8   12 1
    16    8   30 1
    17    9   11 1
    18    9   13 1
    19    9   31 1
    20   10   14 1
    21   10   32 1
    22   11   15 1
    23   11   33 1
    24   12   16 1
    25   12   34 1
    26   12   35 1
    27   13   17 1
    28   13   36 1
    29   13   37 1
    30   14   38 1
    31   14   39 1
    32   15   40 1
    33   15   41 1
    34   16   18 1
    35   16   42 1
    36   16   43 1
    37   17   19 1
    38   17   44 1
    39   17   45 1
    40   18   20 ar
    41   18   22 ar
    42   19   21 ar
    43   19   23 ar
    44   20   24 ar
    45   21   25 ar
    46   22   26 ar
    47   22   49 1
    48   23   27 ar
    49   23   50 1
    50   24   28 ar
    51   24   51 1
    52   25   29 ar
    53   25   52 1
    54   26   28 ar
    55   27   29 ar
    56   28   53 1
    57   29   54 1
