@<TRIPOS>MOLECULE
DB04854
   38    39     0     0     0
SMALL
USER_CHARGES

@<TRIPOS>ATOM
      1 S1         -3.6248    1.3525   -0.2813 S.3       1 <0>        -0.0605
      2 O1          2.7493    0.0268    0.7999 O.3       1 <0>        -0.4904
      3 O2         -6.1457    2.4987   -0.8563 O.3       1 <0>        -0.4767
      4 O3         -7.4736    0.6835   -0.5977 O.2       1 <0>        -0.2445
      5 N1         -3.5568   -1.1631    0.3103 N.2       1 <0>        -0.2434
      6 N2          1.8174    3.4764    1.1243 N.1       1 <0>        -0.1907
      7 C1          4.8848    0.2310   -0.3164 C.3       1 <0>        -0.0124
      8 C2          3.5210   -0.4645   -0.2882 C.3       1 <0>         0.0919
      9 C3          5.6732   -0.0361    0.9675 C.3       1 <0>        -0.0596
     10 C4          5.6872   -0.2192   -1.5353 C.3       1 <0>        -0.0596
     11 C5          1.3876    0.0193    0.6447 C.ar      1 <0>         0.1378
     12 C6         -1.3757   -0.0544    0.3215 C.ar      1 <0>         0.0086
     13 C7          0.6531    1.1995    0.7080 C.ar      1 <0>         0.0939
     14 C8          0.7503   -1.1975    0.4212 C.ar      1 <0>        -0.0180
     15 C9         -0.7319    1.1626    0.5460 C.ar      1 <0>        -0.0311
     16 C10        -0.6346   -1.2343    0.2589 C.ar      1 <0>        -0.0485
     17 C11        -2.8080   -0.0931    0.1543 C.2       1 <0>         0.1093
     18 C12        -4.8746   -0.8256    0.0701 C.2       1 <0>         0.0601
     19 C13        -5.1081    0.4919   -0.2640 C.2       1 <0>         0.1189
     20 C14        -5.8954   -1.8870    0.1915 C.3       1 <0>        -0.0210
     21 C15         1.2962    2.4570    0.9380 C.1       1 <0>         0.1028
     22 C16        -6.3254    1.1670   -0.5694 C.2       1 <0>         0.3453
     23 H1          4.7222    1.3144   -0.3821 H         1 <0>         0.0328
     24 H2          3.0035   -0.2800   -1.2393 H         1 <0>         0.0699
     25 H3          3.6485   -1.5476   -0.1719 H         1 <0>         0.0699
     26 H4          6.6473    0.4635    0.9350 H         1 <0>         0.0233
     27 H5          5.8475   -1.1081    1.1102 H         1 <0>         0.0233
     28 H6          5.1387    0.3404    1.8457 H         1 <0>         0.0233
     29 H7          6.6526    0.2964   -1.5775 H         1 <0>         0.0233
     30 H8          5.1480    0.0067   -2.4612 H         1 <0>         0.0233
     31 H9          5.8800   -1.2971   -1.5091 H         1 <0>         0.0233
     32 H10         1.3129   -2.1259    0.3789 H         1 <0>         0.0655
     33 H11        -1.2674    2.1046    0.6305 H         1 <0>         0.0638
     34 H12        -1.1135   -2.1947    0.0839 H         1 <0>         0.0625
     35 H13        -6.4200   -2.0304   -0.7584 H         1 <0>         0.0293
     36 H14        -5.4393   -2.8430    0.4685 H         1 <0>         0.0293
     37 H15        -6.6301   -1.6319    0.9618 H         1 <0>         0.0293
     38 H16        -6.9966    2.9412   -1.0629 H         1 <0>         0.2954
@<TRIPOS>BOND
     1    1   17 1
     2    1   19 1
     3    2    8 1
     4    2   11 1
     5    3   22 1
     6    3   38 1
     7    4   22 2
     8    5   17 2
     9    5   18 1
    10    6   21 3
    11    7    8 1
    12    7    9 1
    13    7   10 1
    14    7   23 1
    15    8   24 1
    16    8   25 1
    17    9   26 1
    18    9   27 1
    19    9   28 1
    20   10   29 1
    21   10   30 1
    22   10   31 1
    23   11   13 ar
    24   11   14 ar
    25   12   15 ar
    26   12   16 ar
    27   12   17 1
    28   13   15 ar
    29   13   21 1
    30   14   16 ar
    31   14   32 1
    32   15   33 1
    33   16   34 1
    34   18   19 2
    35   18   20 1
    36   19   22 1
    37   20   35 1
    38   20   36 1
    39   20   37 1
