@<TRIPOS>MOLECULE
DB04843
   51    53     0     0     0
SMALL
USER_CHARGES

@<TRIPOS>ATOM
      1 O1          0.5075   -0.9108   -0.6969 O.3       1 <0>        -0.4535
      2 O2         -1.5589   -0.2879   -2.0806 O.3       1 <0>        -0.3698
      3 O3         -0.9780   -2.2071    0.4870 O.2       1 <0>        -0.2468
      4 N1          3.5159   -0.1719   -0.3805 N.4       1 <0>         0.2416
      5 C1          2.8520   -1.3877   -1.0497 C.3       1 <0>         0.0074
      6 C2          3.6486   -0.3739    1.1314 C.3       1 <0>        -0.0304
      7 C3          1.5539   -1.8186   -0.3697 C.3       1 <0>         0.1427
      8 C4          2.3137   -0.7202    1.7750 C.3       1 <0>        -0.0089
      9 C5          1.6936   -1.9581    1.1417 C.3       1 <0>        -0.0058
     10 C6          4.9316   -0.0338   -0.9643 C.3       1 <0>        -0.0414
     11 C7          2.7786    1.1287   -0.7000 C.3       1 <0>        -0.0414
     12 C8         -0.7332   -1.2224   -0.1998 C.2       1 <0>         0.3489
     13 C9         -1.7711   -0.1941   -0.6572 C.3       1 <0>         0.2134
     14 C10        -1.4911    1.2305   -0.1729 C.ar      1 <0>        -0.0008
     15 C11        -3.2044   -0.6127   -0.3220 C.ar      1 <0>        -0.0008
     16 C12        -0.9951    1.4083    1.0981 C.ar      1 <0>        -0.0550
     17 C13        -3.5936   -0.6307    0.9976 C.ar      1 <0>        -0.0550
     18 C14        -1.7456    2.2785   -1.0272 C.ar      1 <0>        -0.0550
     19 C15        -4.0490   -0.9544   -1.3529 C.ar      1 <0>        -0.0550
     20 C16        -0.7397    2.7066    1.5395 C.ar      1 <0>        -0.0614
     21 C17        -4.9000   -1.0119    1.3033 C.ar      1 <0>        -0.0614
     22 C18        -1.4901    3.5767   -0.5858 C.ar      1 <0>        -0.0614
     23 C19        -5.3556   -1.3354   -1.0471 C.ar      1 <0>        -0.0614
     24 C20        -0.9871    3.7907    0.6976 C.ar      1 <0>        -0.0617
     25 C21        -5.7811   -1.3643    0.2810 C.ar      1 <0>        -0.0617
     26 H1          3.5792   -2.2069   -0.9949 H         1 <0>         0.0852
     27 H2          2.6877   -1.1245   -2.1008 H         1 <0>         0.0852
     28 H3          4.0654    0.5467    1.5556 H         1 <0>         0.0815
     29 H4          4.3668   -1.1880    1.2869 H         1 <0>         0.0815
     30 H5          1.2767   -2.7934   -0.7928 H         1 <0>         0.0788
     31 H6          1.6242    0.1262    1.7180 H         1 <0>         0.0318
     32 H7          2.4768   -0.9084    2.8431 H         1 <0>         0.0318
     33 H8          2.3649   -2.8060    1.3369 H         1 <0>         0.0305
     34 H9          0.7837   -2.1882    1.6937 H         1 <0>         0.0305
     35 H10         5.4896   -0.9496   -0.7471 H         1 <0>         0.0778
     36 H11         4.8450    0.1140   -2.0449 H         1 <0>         0.0778
     37 H12         5.4170    0.8270   -0.4946 H         1 <0>         0.0778
     38 H13         1.7865    1.1113   -0.2520 H         1 <0>         0.0778
     39 H14         3.3537    1.9617   -0.2841 H         1 <0>         0.0778
     40 H15         2.7029    1.2251   -1.7872 H         1 <0>         0.0778
     41 H16        -0.7215    0.1567   -2.2992 H         1 <0>         0.2117
     42 H17        -0.7949    0.5809    1.7705 H         1 <0>         0.0621
     43 H18        -2.9262   -0.3850    1.8149 H         1 <0>         0.0621
     44 H19        -2.1498    2.1346   -2.0241 H         1 <0>         0.0621
     45 H20        -3.7572   -0.9426   -2.3972 H         1 <0>         0.0621
     46 H21        -0.3474    2.8730    2.5384 H         1 <0>         0.0618
     47 H22        -5.2301   -1.0397    2.3377 H         1 <0>         0.0618
     48 H23        -1.6857    4.4214   -1.2400 H         1 <0>         0.0618
     49 H24        -6.0422   -1.6097   -1.8428 H         1 <0>         0.0618
     50 H25        -0.7887    4.8016    1.0416 H         1 <0>         0.0618
     51 H26        -6.7979   -1.6622    0.5191 H         1 <0>         0.0618
@<TRIPOS>BOND
     1    1    7 1
     2    1   12 1
     3    2   13 1
     4    2   41 1
     5    3   12 2
     6    4    5 1
     7    4    6 1
     8    4   10 1
     9    4   11 1
    10    5    7 1
    11    5   26 1
    12    5   27 1
    13    6    8 1
    14    6   28 1
    15    6   29 1
    16    7    9 1
    17    7   30 1
    18    8    9 1
    19    8   31 1
    20    8   32 1
    21    9   33 1
    22    9   34 1
    23   10   35 1
    24   10   36 1
    25   10   37 1
    26   11   38 1
    27   11   39 1
    28   11   40 1
    29   12   13 1
    30   13   14 1
    31   13   15 1
    32   14   16 ar
    33   14   18 ar
    34   15   17 ar
    35   15   19 ar
    36   16   20 ar
    37   16   42 1
    38   17   21 ar
    39   17   43 1
    40   18   22 ar
    41   18   44 1
    42   19   23 ar
    43   19   45 1
    44   20   24 ar
    45   20   46 1
    46   21   25 ar
    47   21   47 1
    48   22   24 ar
    49   22   48 1
    50   23   25 ar
    51   23   49 1
    52   24   50 1
    53   25   51 1
