@<TRIPOS>MOLECULE
DB04951
   25    26     0     0     0
SMALL
USER_CHARGES

@<TRIPOS>ATOM
      1 O1         -0.1161   -2.6929    0.6323 O.2       1 <0>        -0.2673
      2 N1          0.1746   -0.4069    0.0814 N.am      1 <0>        -0.2839
      3 C1         -1.2422   -0.1001    0.0355 C.ar      1 <0>         0.0494
      4 C2          1.1236    0.5999   -0.1125 C.2       1 <0>         0.0161
      5 C3          2.4459    0.3756   -0.0911 C.2       1 <0>        -0.0337
      6 C4          0.5995   -1.7322    0.3481 C.2       1 <0>         0.2557
      7 C5          2.9253   -0.9628    0.1346 C.2       1 <0>        -0.0523
      8 C6          2.0736   -1.9715    0.3334 C.2       1 <0>         0.0036
      9 C7         -1.6868    1.1603    0.4199 C.ar      1 <0>        -0.0377
     10 C8         -2.1436   -1.0686   -0.3927 C.ar      1 <0>        -0.0377
     11 C9          3.4659    1.4480   -0.3144 C.3       1 <0>        -0.0383
     12 C10        -3.0493    1.4558    0.3754 C.ar      1 <0>        -0.0598
     13 C11        -3.5061   -0.7730   -0.4372 C.ar      1 <0>        -0.0598
     14 C12        -3.9588    0.4893   -0.0531 C.ar      1 <0>        -0.0616
     15 H1          0.7586    1.5977   -0.3272 H         1 <0>         0.0816
     16 H2          3.9950   -1.1441    0.1348 H         1 <0>         0.0622
     17 H3          2.4262   -2.9821    0.5061 H         1 <0>         0.0672
     18 H4         -1.0188    1.9296    0.7949 H         1 <0>         0.0638
     19 H5         -1.8359   -2.0419   -0.7593 H         1 <0>         0.0638
     20 H6          3.0007    2.4247   -0.4856 H         1 <0>         0.0278
     21 H7          4.0830    1.2175   -1.1895 H         1 <0>         0.0278
     22 H8          4.1220    1.5427    0.5575 H         1 <0>         0.0278
     23 H9         -3.4033    2.4359    0.6818 H         1 <0>         0.0618
     24 H10        -4.2136   -1.5205   -0.7838 H         1 <0>         0.0618
     25 H11        -5.0194    0.7198   -0.0891 H         1 <0>         0.0618
@<TRIPOS>BOND
     1    1    6 2
     2    2    3 1
     3    2    4 1
     4    2    6 am
     5    3    9 ar
     6    3   10 ar
     7    4    5 2
     8    4   15 1
     9    5    7 1
    10    5   11 1
    11    6    8 1
    12    7    8 2
    13    7   16 1
    14    8   17 1
    15    9   12 ar
    16    9   18 1
    17   10   13 ar
    18   10   19 1
    19   11   20 1
    20   11   21 1
    21   11   22 1
    22   12   14 ar
    23   12   23 1
    24   13   14 ar
    25   13   24 1
    26   14   25 1
