@<TRIPOS>MOLECULE
DB04890
   52    54     0     0     0
SMALL
USER_CHARGES

@<TRIPOS>ATOM
      1 Cl1         6.3890   -4.4113    0.8001 Cl        1 <0>        -0.0835
      2 O1          1.1714   -0.3341    0.4878 O.3       1 <0>        -0.3625
      3 O2         -6.7621   -1.5794    2.1845 O.3       1 <0>        -0.4806
      4 O3         -6.9546    0.6066    1.5986 O.2       1 <0>        -0.2510
      5 N1         -2.7812   -0.1984   -0.8829 N.3       1 <0>        -0.3021
      6 N2          2.6914    1.7114    1.4611 N.ar      1 <0>        -0.2569
      7 C1          0.0493    0.1451   -0.2423 C.3       1 <0>         0.0623
      8 C2         -1.0580    0.5196    0.7378 C.3       1 <0>        -0.0137
      9 C3         -0.4421   -0.9291   -1.2087 C.3       1 <0>        -0.0137
     10 C4         -2.3473    0.8895    0.0054 C.3       1 <0>         0.0012
     11 C5         -1.7499   -0.5144   -1.8815 C.3       1 <0>         0.0012
     12 C6         -4.0407    0.1495   -1.5405 C.3       1 <0>        -0.0006
     13 C7         -5.1247    0.4221   -0.4969 C.3       1 <0>        -0.0301
     14 C8          2.3910   -0.0431   -0.1808 C.3       1 <0>         0.1257
     15 C9         -5.3932   -0.7869    0.3942 C.3       1 <0>         0.0459
     16 C10         3.4008   -1.1443    0.0671 C.ar      1 <0>        -0.0129
     17 C11         2.9108    1.3314    0.1936 C.ar      1 <0>         0.0744
     18 C12         4.3505   -1.4190   -0.9006 C.ar      1 <0>        -0.0544
     19 C13         3.3493   -1.8513    1.2553 C.ar      1 <0>        -0.0544
     20 C14        -6.4484   -0.4960    1.4324 C.2       1 <0>         0.3047
     21 C15         3.5538    2.0726   -0.7684 C.ar      1 <0>        -0.0375
     22 C16         5.2795   -2.4342   -0.6726 C.ar      1 <0>        -0.0430
     23 C17         4.2784   -2.8664    1.4833 C.ar      1 <0>        -0.0430
     24 C18         4.0183    3.3282   -0.3932 C.ar      1 <0>        -0.0585
     25 C19         5.2436   -3.1579    0.5195 C.ar      1 <0>         0.0410
     26 C20         3.1568    2.9376    1.7891 C.ar      1 <0>         0.0280
     27 C21         3.8202    3.7765    0.9081 C.ar      1 <0>        -0.0436
     28 H1          0.3061    1.0540   -0.8047 H         1 <0>         0.0597
     29 H2         -1.2421   -0.3155    1.4272 H         1 <0>         0.0302
     30 H3         -0.7273    1.3554    1.3665 H         1 <0>         0.0302
     31 H4          0.3157   -1.1346   -1.9735 H         1 <0>         0.0302
     32 H5         -0.5805   -1.8757   -0.6692 H         1 <0>         0.0302
     33 H6         -3.0716    1.0907    0.7990 H         1 <0>         0.0427
     34 H7         -2.2008    1.8217   -0.5556 H         1 <0>         0.0427
     35 H8         -1.5683    0.3439   -2.5419 H         1 <0>         0.0427
     36 H9         -2.0872   -1.3457   -2.5126 H         1 <0>         0.0427
     37 H10        -3.9260    1.0312   -2.1841 H         1 <0>         0.0427
     38 H11        -4.3687   -0.6795   -2.1801 H         1 <0>         0.0427
     39 H12        -4.9329    1.3274    0.0883 H         1 <0>         0.0283
     40 H13        -6.0508    0.6507   -1.0432 H         1 <0>         0.0283
     41 H14         2.1973   -0.0547   -1.2636 H         1 <0>         0.0713
     42 H15        -5.7383   -1.6283   -0.2170 H         1 <0>         0.0378
     43 H16        -4.4893   -1.0873    0.9339 H         1 <0>         0.0378
     44 H17         4.3874   -0.8647   -1.8338 H         1 <0>         0.0622
     45 H18         2.6148   -1.6344    2.0249 H         1 <0>         0.0622
     46 H19         3.7017    1.7152   -1.7809 H         1 <0>         0.0636
     47 H20         6.0254   -2.6510   -1.4331 H         1 <0>         0.0632
     48 H21         4.2401   -3.4205    2.4177 H         1 <0>         0.0632
     49 H22         4.5333    3.9565   -1.1134 H         1 <0>         0.0619
     50 H23         2.9768    3.2401    2.8153 H         1 <0>         0.0829
     51 H24         4.1735    4.7517    1.2226 H         1 <0>         0.0633
     52 H25        -7.4402   -1.3711    2.8621 H         1 <0>         0.2951
@<TRIPOS>BOND
     1    1   25 1
     2    2    7 1
     3    2   14 1
     4    3   20 1
     5    3   52 1
     6    4   20 2
     7    5   10 1
     8    5   11 1
     9    5   12 1
    10    6   17 ar
    11    6   26 ar
    12    7    8 1
    13    7    9 1
    14    7   28 1
    15    8   10 1
    16    8   29 1
    17    8   30 1
    18    9   11 1
    19    9   31 1
    20    9   32 1
    21   10   33 1
    22   10   34 1
    23   11   35 1
    24   11   36 1
    25   12   13 1
    26   12   37 1
    27   12   38 1
    28   13   15 1
    29   13   39 1
    30   13   40 1
    31   14   16 1
    32   14   17 1
    33   14   41 1
    34   15   20 1
    35   15   42 1
    36   15   43 1
    37   16   18 ar
    38   16   19 ar
    39   17   21 ar
    40   18   22 ar
    41   18   44 1
    42   19   23 ar
    43   19   45 1
    44   21   24 ar
    45   21   46 1
    46   22   25 ar
    47   22   47 1
    48   23   25 ar
    49   23   48 1
    50   24   27 ar
    51   24   49 1
    52   26   27 ar
    53   26   50 1
    54   27   51 1
