@<TRIPOS>MOLECULE
DB04824
   38    41     0     0     0
SMALL
USER_CHARGES

@<TRIPOS>ATOM
      1 O1         -0.0649   -0.5277   -2.0050 O.3       1 <0>        -0.4400
      2 O2         -0.2886   -2.3846   -3.3637 O.2       1 <0>        -0.2449
      3 O3         -4.6165    3.0374    0.2494 O.3       1 <0>        -0.5068
      4 O4          4.8532    2.4999    0.6153 O.3       1 <0>        -0.5068
      5 C1         -0.0118   -0.1979   -0.5694 C.3       1 <0>         0.1895
      6 C2         -0.0298   -1.5796    0.0160 C.ar      1 <0>         0.0188
      7 C3         -1.2532    0.6741   -0.3490 C.ar      1 <0>         0.0051
      8 C4          1.3004    0.5292   -0.2497 C.ar      1 <0>         0.0051
      9 C5         -0.1449   -2.5268   -0.9849 C.ar      1 <0>         0.0667
     10 C6         -0.1857   -1.8619   -2.2726 C.2       1 <0>         0.3411
     11 C7          0.0758   -1.9944    1.3374 C.ar      1 <0>        -0.0533
     12 C8         -1.4108    1.8628   -1.0645 C.ar      1 <0>        -0.0507
     13 C9          1.5315    1.0256    1.0348 C.ar      1 <0>        -0.0507
     14 C10        -2.2302    0.2824    0.5688 C.ar      1 <0>        -0.0507
     15 C11         2.2675    0.6978   -1.2430 C.ar      1 <0>        -0.0507
     16 C12        -0.1808   -3.8882   -0.7382 C.ar      1 <0>        -0.0474
     17 C13         0.0410   -3.3637    1.6209 C.ar      1 <0>        -0.0613
     18 C14        -0.0891   -4.3049    0.5888 C.ar      1 <0>        -0.0610
     19 C15        -2.5401    2.6563   -0.8630 C.ar      1 <0>        -0.0198
     20 C16         2.7245    1.6876    1.3249 C.ar      1 <0>        -0.0198
     21 C17        -3.3595    1.0759    0.7702 C.ar      1 <0>        -0.0198
     22 C18         3.4605    1.3598   -0.9528 C.ar      1 <0>        -0.0198
     23 C19        -3.5144    2.2629    0.0542 C.ar      1 <0>         0.1169
     24 C20         3.6890    1.8547    0.3311 C.ar      1 <0>         0.1169
     25 H1          0.1692   -1.2863    2.1529 H         1 <0>         0.0622
     26 H2         -0.6634    2.1847   -1.7848 H         1 <0>         0.0623
     27 H3          0.7885    0.9243    1.8205 H         1 <0>         0.0623
     28 H4         -2.1653   -0.6312    1.1471 H         1 <0>         0.0623
     29 H5          2.1288    0.3258   -2.2534 H         1 <0>         0.0623
     30 H6         -0.2696   -4.6116   -1.5408 H         1 <0>         0.0626
     31 H7          0.1144   -3.7026    2.6508 H         1 <0>         0.0618
     32 H8         -0.1129   -5.3648    0.8268 H         1 <0>         0.0618
     33 H9         -2.6556    3.5796   -1.4242 H         1 <0>         0.0654
     34 H10         2.8887    2.0719    2.3281 H         1 <0>         0.0654
     35 H11        -4.1126    0.7581    1.4864 H         1 <0>         0.0654
     36 H12         4.2086    1.4865   -1.7306 H         1 <0>         0.0654
     37 H13        -5.1840    2.6152    0.9169 H         1 <0>         0.2921
     38 H14         4.8420    2.7739    1.5486 H         1 <0>         0.2921
@<TRIPOS>BOND
     1    1    5 1
     2    1   10 1
     3    2   10 2
     4    3   23 1
     5    3   37 1
     6    4   24 1
     7    4   38 1
     8    5    6 1
     9    5    7 1
    10    5    8 1
    11    6    9 ar
    12    6   11 ar
    13    7   12 ar
    14    7   14 ar
    15    8   13 ar
    16    8   15 ar
    17    9   10 1
    18    9   16 ar
    19   11   17 ar
    20   11   25 1
    21   12   19 ar
    22   12   26 1
    23   13   20 ar
    24   13   27 1
    25   14   21 ar
    26   14   28 1
    27   15   22 ar
    28   15   29 1
    29   16   18 ar
    30   16   30 1
    31   17   18 ar
    32   17   31 1
    33   18   32 1
    34   19   23 ar
    35   19   33 1
    36   20   24 ar
    37   20   34 1
    38   21   23 ar
    39   21   35 1
    40   22   24 ar
    41   22   36 1
