@<TRIPOS>MOLECULE
DB04465
   45    46     0     0     0
SMALL
USER_CHARGES

@<TRIPOS>ATOM
      1 O1          0.0969    0.7921   -0.8123 O.3       1 <0>        -0.3401
      2 O2         -1.3875   -0.7321    0.1481 O.3       1 <0>        -0.3405
      3 O3          3.4146    0.6287    0.7303 O.3       1 <0>        -0.3407
      4 O4          0.8099   -1.9989   -1.0525 O.3       1 <0>        -0.3864
      5 O5         -1.9761    2.7327   -0.8821 O.3       1 <0>        -0.3841
      6 O6         -4.6231    1.5737   -1.0105 O.3       1 <0>        -0.3864
      7 O7         -3.9212   -1.1143   -1.1141 O.3       1 <0>        -0.3865
      8 O8          3.7153   -2.2913   -1.4453 O.3       1 <0>        -0.3841
      9 O9          5.1932   -0.8639    0.5005 O.3       1 <0>        -0.3649
     10 O10         2.8025    3.2405    1.3303 O.3       1 <0>        -0.3924
     11 O11        -1.5513   -2.8841    1.8456 O.3       1 <0>        -0.3924
     12 C1          1.1994    0.1820   -0.1465 C.3       1 <0>         0.1184
     13 C2          1.7638   -0.9360   -1.0235 C.3       1 <0>         0.1144
     14 C3         -1.1065    0.6517   -0.0579 C.3       1 <0>         0.1884
     15 C4          2.2674    1.2406    0.1381 C.3       1 <0>         0.1134
     16 C5         -2.2333    1.3291   -0.8411 C.3       1 <0>         0.1341
     17 C6         -3.5834    1.0847   -0.1676 C.3       1 <0>         0.1141
     18 C7         -3.7932   -0.4026    0.1184 C.3       1 <0>         0.1119
     19 C8          3.0901   -1.4573   -0.4700 C.3       1 <0>         0.1339
     20 C9         -2.5915   -0.9562    0.8922 C.3       1 <0>         0.1130
     21 C10         4.0442   -0.3096   -0.1391 C.3       1 <0>         0.1854
     22 C11         1.7629    2.3057    1.1065 C.3       1 <0>         0.0730
     23 C12        -2.7016   -2.4564    1.1386 C.3       1 <0>         0.0730
     24 H1          0.8983   -0.2644    0.8131 H         1 <0>         0.0651
     25 H2          1.8861   -0.5986   -2.0601 H         1 <0>         0.0648
     26 H3         -0.9678    1.1504    0.9107 H         1 <0>         0.0938
     27 H4          2.5779    1.7429   -0.7883 H         1 <0>         0.0647
     28 H5         -2.2546    0.9827   -1.8815 H         1 <0>         0.0671
     29 H6         -3.6397    1.6513    0.7704 H         1 <0>         0.0648
     30 H7         -4.7267   -0.5537    0.6708 H         1 <0>         0.0647
     31 H8         -2.4879   -0.4468    1.8593 H         1 <0>         0.0647
     32 H9          2.9073   -2.0796    0.4149 H         1 <0>         0.0671
     33 H10         4.3871    0.1923   -1.0529 H         1 <0>         0.0935
     34 H11         1.4880    1.8724    2.0739 H         1 <0>         0.0584
     35 H12         0.9021    2.8462    0.7031 H         1 <0>         0.0584
     36 H13        -2.7387   -3.0244    0.2035 H         1 <0>         0.0584
     37 H14        -3.5877   -2.6973    1.7333 H         1 <0>         0.0584
     38 H15        -0.0157   -1.6404   -1.4205 H         1 <0>         0.2100
     39 H16        -1.0999    2.8562   -1.2858 H         1 <0>         0.2101
     40 H17        -4.4413    2.5137   -1.1819 H         1 <0>         0.2100
     41 H18        -3.0543   -1.1223   -1.5537 H         1 <0>         0.2100
     42 H19         4.5585   -2.5971   -1.0694 H         1 <0>         0.2101
     43 H20         5.9263   -0.2410    0.3591 H         1 <0>         0.2126
     44 H21         3.5646    2.7530    1.6873 H         1 <0>         0.2095
     45 H22        -0.7736   -2.6541    1.3086 H         1 <0>         0.2095
@<TRIPOS>BOND
     1    1   12 1
     2    1   14 1
     3    2   14 1
     4    2   20 1
     5    3   15 1
     6    3   21 1
     7    4   13 1
     8    4   38 1
     9    5   16 1
    10    5   39 1
    11    6   17 1
    12    6   40 1
    13    7   18 1
    14    7   41 1
    15    8   19 1
    16    8   42 1
    17    9   21 1
    18    9   43 1
    19   10   22 1
    20   10   44 1
    21   11   23 1
    22   11   45 1
    23   12   13 1
    24   12   15 1
    25   12   24 1
    26   13   19 1
    27   13   25 1
    28   14   16 1
    29   14   26 1
    30   15   22 1
    31   15   27 1
    32   16   17 1
    33   16   28 1
    34   17   18 1
    35   17   29 1
    36   18   20 1
    37   18   30 1
    38   19   21 1
    39   19   32 1
    40   20   23 1
    41   20   31 1
    42   21   33 1
    43   22   34 1
    44   22   35 1
    45   23   36 1
    46   23   37 1
