@<TRIPOS>MOLECULE
DB04038
   73    76     0     0     0
SMALL
USER_CHARGES

@<TRIPOS>ATOM
      1 O1         -8.8198   -0.4262   -0.3121 O.3       1 <0>        -0.3915
      2 C1         -0.1319    0.2002    0.0665 C.3       1 <0>        -0.0222
      3 C2         -0.8666   -1.0187   -0.5258 C.3       1 <0>        -0.0136
      4 C3          1.2949   -0.0659   -0.4725 C.3       1 <0>        -0.0291
      5 C4         -3.0973    0.2448   -0.4713 C.3       1 <0>        -0.0102
      6 C5         -0.7928    1.4636   -0.5101 C.3       1 <0>        -0.0462
      7 C6         -2.3324   -1.0498   -0.1801 C.2       1 <0>        -0.0620
      8 C7          0.0662   -2.1880   -0.1969 C.3       1 <0>        -0.0457
      9 C8         -4.5786    0.2802    0.1237 C.3       1 <0>        -0.0041
     10 C9          1.4804   -1.5895   -0.2975 C.3       1 <0>        -0.0486
     11 C10        -2.2817    1.5305   -0.1366 C.3       1 <0>        -0.0452
     12 C11        -0.1571    0.2333    1.6149 C.3       1 <0>        -0.0587
     13 C12         2.4184    0.7442    0.1586 C.3       1 <0>        -0.0224
     14 C13        -5.1824   -1.1252    0.2485 C.2       1 <0>        -0.0607
     15 C14        -5.4467    1.1508   -0.8320 C.3       1 <0>        -0.0410
     16 C15        -2.9740   -2.1639    0.2034 C.2       1 <0>        -0.0620
     17 C16        -4.6135    0.8904    1.5475 C.3       1 <0>        -0.0553
     18 C17        -4.4078   -2.2214    0.2961 C.2       1 <0>        -0.0619
     19 C18        -6.6810   -1.2434    0.3891 C.3       1 <0>        -0.0048
     20 C19        -6.9481    1.0690   -0.5667 C.3       1 <0>        -0.0258
     21 C20        -7.4301   -0.3776   -0.6188 C.3       1 <0>         0.0590
     22 C21         2.1863    2.2439   -0.0407 C.3       1 <0>        -0.0587
     23 C22         3.7492    0.3453   -0.4317 C.2       1 <0>        -0.0846
     24 C23         4.7598   -0.1697    0.2856 C.2       1 <0>        -0.0846
     25 C24         6.0888   -0.5821   -0.3084 C.3       1 <0>        -0.0234
     26 C25         7.2627    0.2251    0.3158 C.3       1 <0>        -0.0407
     27 C26         6.2480   -2.0946   -0.1140 C.3       1 <0>        -0.0587
     28 C27         7.1026    1.7358    0.1067 C.3       1 <0>        -0.0621
     29 C28         8.6188   -0.2094   -0.2593 C.3       1 <0>        -0.0621
     30 H1         -0.8468   -0.9286   -1.6256 H         1 <0>         0.0351
     31 H2          1.2933    0.1308   -1.5566 H         1 <0>         0.0312
     32 H3         -3.1882    0.2398   -1.5693 H         1 <0>         0.0354
     33 H4         -0.7008    1.4788   -1.6037 H         1 <0>         0.0271
     34 H5         -0.3404    2.3856   -0.1460 H         1 <0>         0.0271
     35 H6         -0.0643   -3.0222   -0.8944 H         1 <0>         0.0271
     36 H7         -0.1043   -2.5733    0.8151 H         1 <0>         0.0271
     37 H8          2.0459   -1.8415    0.6071 H         1 <0>         0.0268
     38 H9          2.0206   -2.0139   -1.1515 H         1 <0>         0.0268
     39 H10        -2.3314    1.7566    0.9325 H         1 <0>         0.0271
     40 H11        -2.7334    2.3880   -0.6498 H         1 <0>         0.0271
     41 H12        -1.1704    0.1308    2.0156 H         1 <0>         0.0235
     42 H13         0.4333   -0.5752    2.0583 H         1 <0>         0.0235
     43 H14         0.2428    1.1766    2.0005 H         1 <0>         0.0235
     44 H15         2.4568    0.5571    1.2392 H         1 <0>         0.0343
     45 H16        -5.2793    0.8358   -1.8710 H         1 <0>         0.0275
     46 H17        -5.1349    2.2008   -0.7762 H         1 <0>         0.0275
     47 H18        -2.4469   -3.0996    0.3556 H         1 <0>         0.0617
     48 H19        -5.5944    0.7870    2.0244 H         1 <0>         0.0238
     49 H20        -3.8853    0.4032    2.2064 H         1 <0>         0.0238
     50 H21        -4.3990    1.9645    1.5335 H         1 <0>         0.0238
     51 H22        -4.8442   -3.2085    0.4140 H         1 <0>         0.0617
     52 H23        -7.0132   -2.2838    0.2769 H         1 <0>         0.0335
     53 H24        -6.9744   -0.9604    1.4083 H         1 <0>         0.0335
     54 H25        -7.1983    1.5191    0.4018 H         1 <0>         0.0290
     55 H26        -7.4884    1.6640   -1.3133 H         1 <0>         0.0290
     56 H27        -7.2960   -0.7837   -1.6290 H         1 <0>         0.0596
     57 H28         1.8405    2.4817   -1.0520 H         1 <0>         0.0235
     58 H29         3.1191    2.8012    0.1152 H         1 <0>         0.0235
     59 H30         1.4877    2.6442    0.6974 H         1 <0>         0.0235
     60 H31         3.8769    0.4887   -1.5025 H         1 <0>         0.0572
     61 H32         4.6342   -0.3137    1.3566 H         1 <0>         0.0572
     62 H33        -9.2834    0.1255   -0.9651 H         1 <0>         0.2098
     63 H34         6.0763   -0.3899   -1.3901 H         1 <0>         0.0343
     64 H35         7.2872    0.0407    1.3985 H         1 <0>         0.0301
     65 H36         7.0985   -2.4815   -0.6838 H         1 <0>         0.0235
     66 H37         5.3598   -2.6331   -0.4652 H         1 <0>         0.0235
     67 H38         6.3995   -2.3492    0.9411 H         1 <0>         0.0235
     68 H39         7.9587    2.2793    0.5212 H         1 <0>         0.0233
     69 H40         7.0306    1.9818   -0.9583 H         1 <0>         0.0233
     70 H41         6.2076    2.1188    0.6068 H         1 <0>         0.0233
     71 H42         8.6294   -0.1311   -1.3516 H         1 <0>         0.0233
     72 H43         9.4270    0.4184    0.1322 H         1 <0>         0.0233
     73 H44         8.8577   -1.2413    0.0152 H         1 <0>         0.0233
@<TRIPOS>BOND
     1    1   21 1
     2    1   62 1
     3    2    3 1
     4    2    4 1
     5    2    6 1
     6    2   12 1
     7    3    7 1
     8    3    8 1
     9    3   30 1
    10    4   10 1
    11    4   13 1
    12    4   31 1
    13    5    7 1
    14    5    9 1
    15    5   11 1
    16    5   32 1
    17    6   11 1
    18    6   33 1
    19    6   34 1
    20    7   16 2
    21    8   10 1
    22    8   35 1
    23    8   36 1
    24    9   14 1
    25    9   15 1
    26    9   17 1
    27   10   37 1
    28   10   38 1
    29   11   39 1
    30   11   40 1
    31   12   41 1
    32   12   42 1
    33   12   43 1
    34   13   22 1
    35   13   23 1
    36   13   44 1
    37   14   18 2
    38   14   19 1
    39   15   20 1
    40   15   45 1
    41   15   46 1
    42   16   18 1
    43   16   47 1
    44   17   48 1
    45   17   49 1
    46   17   50 1
    47   18   51 1
    48   19   21 1
    49   19   52 1
    50   19   53 1
    51   20   21 1
    52   20   54 1
    53   20   55 1
    54   21   56 1
    55   22   57 1
    56   22   58 1
    57   22   59 1
    58   23   24 2
    59   23   60 1
    60   24   25 1
    61   24   61 1
    62   25   26 1
    63   25   27 1
    64   25   63 1
    65   26   28 1
    66   26   29 1
    67   26   64 1
    68   27   65 1
    69   27   66 1
    70   27   67 1
    71   28   68 1
    72   28   69 1
    73   28   70 1
    74   29   71 1
    75   29   72 1
    76   29   73 1
