@<TRIPOS>MOLECULE
DB04841
   56    59     0     0     0
SMALL
USER_CHARGES

@<TRIPOS>ATOM
      1 F1          3.4412   -5.6427    0.6722 F         1 <0>        -0.2055
      2 F2          7.2483    2.8537    0.6115 F         1 <0>        -0.2055
      3 N1          1.4814    0.3330    0.0080 N.3       1 <0>        -0.2891
      4 N2         -1.1041    1.6194   -0.1306 N.3       1 <0>        -0.2963
      5 C1          1.3580    1.7662   -0.2853 C.3       1 <0>         0.0126
      6 C2          0.2944   -0.3903   -0.4643 C.3       1 <0>         0.0126
      7 C3          2.6963   -0.2165   -0.5901 C.3       1 <0>         0.0610
      8 C4          0.0833    2.3434    0.3398 C.3       1 <0>         0.0121
      9 C5         -0.9802    0.1860    0.1618 C.3       1 <0>         0.0121
     10 C6         -2.3185    2.1684    0.4695 C.3       1 <0>         0.0175
     11 C7          2.8975   -1.6857   -0.2490 C.ar      1 <0>        -0.0257
     12 C8          3.9290    0.6142   -0.2655 C.ar      1 <0>        -0.0257
     13 C9         -3.5479    1.4874   -0.0547 C.2       1 <0>        -0.0695
     14 C10         3.5567   -2.4960   -1.1507 C.ar      1 <0>        -0.0540
     15 C11         4.2822    1.6440   -1.1135 C.ar      1 <0>        -0.0540
     16 C12         2.4151   -2.1635    0.9524 C.ar      1 <0>        -0.0540
     17 C13         4.6564    0.3133    0.8680 C.ar      1 <0>        -0.0540
     18 C14         3.7414   -3.8427   -0.8372 C.ar      1 <0>        -0.0261
     19 C15         5.4120    2.4058   -0.8152 C.ar      1 <0>        -0.0261
     20 C16         2.6000   -3.5099    1.2658 C.ar      1 <0>        -0.0261
     21 C17         5.7859    1.0754    1.1664 C.ar      1 <0>        -0.0261
     22 C18        -4.4174    0.8317    0.7304 C.2       1 <0>        -0.0573
     23 C19         3.2631   -4.3497    0.3711 C.ar      1 <0>         0.1234
     24 C20         6.1638    2.1216    0.3248 C.ar      1 <0>         0.1234
     25 C21        -5.6445    0.1631    0.2663 C.ar      1 <0>        -0.0253
     26 C22        -5.7668   -0.1806   -1.0710 C.ar      1 <0>        -0.0546
     27 C23        -6.6546   -0.1108    1.1749 C.ar      1 <0>        -0.0546
     28 C24        -6.9289   -0.8145   -1.5107 C.ar      1 <0>        -0.0612
     29 C25        -7.8167   -0.7448    0.7352 C.ar      1 <0>        -0.0612
     30 C26        -7.9538   -1.0965   -0.6076 C.ar      1 <0>        -0.0617
     31 H1          1.3480    1.9564   -1.3669 H         1 <0>         0.0439
     32 H2          2.1683    2.3460    0.1668 H         1 <0>         0.0439
     33 H3          0.3035   -1.4557   -0.2191 H         1 <0>         0.0439
     34 H4          0.2150   -0.3250   -1.5591 H         1 <0>         0.0439
     35 H5          2.5722   -0.1813   -1.6851 H         1 <0>         0.0562
     36 H6          0.1581    2.3022    1.4351 H         1 <0>         0.0439
     37 H7          0.0081    3.4006    0.0574 H         1 <0>         0.0439
     38 H8         -1.8189   -0.3789   -0.2609 H         1 <0>         0.0439
     39 H9         -0.9729    0.0037    1.2453 H         1 <0>         0.0439
     40 H10        -2.4036    3.2322    0.2140 H         1 <0>         0.0470
     41 H11        -2.2755    2.1096    1.5653 H         1 <0>         0.0470
     42 H12        -3.7136    1.5895   -1.1233 H         1 <0>         0.0585
     43 H13         3.9341   -2.1101   -2.0929 H         1 <0>         0.0622
     44 H14         3.7156    1.8683   -2.0120 H         1 <0>         0.0622
     45 H15         1.9203   -1.5333    1.6852 H         1 <0>         0.0622
     46 H16         4.3868   -0.4729    1.5627 H         1 <0>         0.0622
     47 H17         4.2582   -4.4966   -1.5334 H         1 <0>         0.0646
     48 H18         5.7081    3.2186   -1.4718 H         1 <0>         0.0646
     49 H19         2.2336   -3.9038    2.2092 H         1 <0>         0.0646
     50 H20         6.3688    0.8582    2.0567 H         1 <0>         0.0646
     51 H21        -4.2295    0.7822    1.8007 H         1 <0>         0.0621
     52 H22        -4.9865   -0.0013   -1.8038 H         1 <0>         0.0623
     53 H23        -6.5632    0.1581    2.2239 H         1 <0>         0.0623
     54 H24        -7.0342   -1.0934   -2.5552 H         1 <0>         0.0618
     55 H25        -8.6148   -0.9645    1.4382 H         1 <0>         0.0618
     56 H26        -8.8582   -1.5912   -0.9498 H         1 <0>         0.0618
@<TRIPOS>BOND
     1    1   23 1
     2    2   24 1
     3    3    5 1
     4    3    6 1
     5    3    7 1
     6    4    8 1
     7    4    9 1
     8    4   10 1
     9    5    8 1
    10    5   31 1
    11    5   32 1
    12    6    9 1
    13    6   33 1
    14    6   34 1
    15    7   11 1
    16    7   12 1
    17    7   35 1
    18    8   36 1
    19    8   37 1
    20    9   38 1
    21    9   39 1
    22   10   13 1
    23   10   40 1
    24   10   41 1
    25   11   14 ar
    26   11   16 ar
    27   12   15 ar
    28   12   17 ar
    29   13   22 2
    30   13   42 1
    31   14   18 ar
    32   14   43 1
    33   15   19 ar
    34   15   44 1
    35   16   20 ar
    36   16   45 1
    37   17   21 ar
    38   17   46 1
    39   18   23 ar
    40   18   47 1
    41   19   24 ar
    42   19   48 1
    43   20   23 ar
    44   20   49 1
    45   21   24 ar
    46   21   50 1
    47   22   25 1
    48   22   51 1
    49   25   26 ar
    50   25   27 ar
    51   26   28 ar
    52   26   52 1
    53   27   29 ar
    54   27   53 1
    55   28   30 ar
    56   28   54 1
    57   29   30 ar
    58   29   55 1
    59   30   56 1
