@<TRIPOS>MOLECULE
DB04711
   48    49     0     0     0
SMALL
USER_CHARGES

@<TRIPOS>ATOM
      1 I1         -2.7817    2.3024    2.4379 I         1 <0>        -0.0410
      2 I2          1.7905    1.1593    1.6194 I         1 <0>        -0.0410
      3 I3         -1.7283   -0.0952   -3.0973 I         1 <0>        -0.0418
      4 I4          2.5660   -4.1712   -1.2924 I         1 <0>        -0.0418
      5 I5         -0.5395    5.6638   -2.1656 I         1 <0>        -0.0429
      6 I6          7.1580   -0.4036   -0.8834 I         1 <0>        -0.0429
      7 O1         -4.4415   -0.3183   -1.3663 O.2       1 <0>        -0.2755
      8 O2          1.3212   -3.7135    1.6401 O.2       1 <0>        -0.2755
      9 O3         -0.4578    4.9996    1.4955 O.3       1 <0>        -0.4771
     10 O4          4.7659    2.3608   -0.1974 O.3       1 <0>        -0.4771
     11 O5         -2.5589    5.6967    0.9795 O.2       1 <0>        -0.2451
     12 O6          5.4629    1.5559    1.8109 O.2       1 <0>        -0.2451
     13 N1         -2.6178    0.1385    0.0408 N.am      1 <0>        -0.2838
     14 N2          1.1289   -1.7505    0.3725 N.am      1 <0>        -0.2838
     15 C1         -3.0441   -3.0816   -0.2055 C.3       1 <0>        -0.0443
     16 C2         -1.5148   -2.9355   -0.2126 C.3       1 <0>        -0.0443
     17 C3         -3.8388   -1.9003    0.3460 C.3       1 <0>         0.0243
     18 C4         -0.8669   -2.8595    1.1718 C.3       1 <0>         0.0243
     19 C5         -3.6834   -0.6116   -0.4481 C.2       1 <0>         0.2172
     20 C6          0.6545   -2.8386    1.0933 C.2       1 <0>         0.2172
     21 C7         -2.1569    1.3905   -0.4285 C.ar      1 <0>         0.0607
     22 C8          2.4799   -1.4221    0.1035 C.ar      1 <0>         0.0607
     23 C9         -2.1295    2.4958    0.4217 C.ar      1 <0>         0.0505
     24 C10         3.0114   -0.2089    0.5404 C.ar      1 <0>         0.0505
     25 C11        -1.7275    1.5159   -1.7496 C.ar      1 <0>         0.0366
     26 C12         3.2803   -2.3206   -0.6022 C.ar      1 <0>         0.0366
     27 C13        -1.6727    3.7267   -0.0492 C.ar      1 <0>         0.0868
     28 C14         4.3434    0.1062    0.2716 C.ar      1 <0>         0.0868
     29 C15        -1.2706    2.7468   -2.2205 C.ar      1 <0>        -0.0328
     30 C16         4.6124   -2.0057   -0.8708 C.ar      1 <0>        -0.0328
     31 C17        -1.2433    3.8522   -1.3704 C.ar      1 <0>         0.0294
     32 C18         5.1439   -0.7923   -0.4340 C.ar      1 <0>         0.0294
     33 C19        -1.6390    4.8929    0.8342 C.2       1 <0>         0.3389
     34 C20         4.9117    1.3758    0.7258 C.2       1 <0>         0.3389
     35 H1         -3.3107   -3.9805    0.3637 H         1 <0>         0.0270
     36 H2         -3.3659   -3.2622   -1.2392 H         1 <0>         0.0270
     37 H3         -1.2228   -2.0709   -0.8080 H         1 <0>         0.0270
     38 H4         -1.1002   -3.8054   -0.7386 H         1 <0>         0.0270
     39 H5         -3.5872   -1.7292    1.3988 H         1 <0>         0.0358
     40 H6         -4.9064   -2.1540    0.3334 H         1 <0>         0.0358
     41 H7         -1.1912   -1.9627    1.7098 H         1 <0>         0.0358
     42 H8         -1.1657   -3.7272    1.7711 H         1 <0>         0.0358
     43 H9         -2.3802   -0.0392    1.0147 H         1 <0>         0.1549
     44 H10         0.5008   -0.9486    0.3572 H         1 <0>         0.1549
     45 H11        -0.9346    2.8442   -3.2509 H         1 <0>         0.0639
     46 H12         5.2368   -2.7070   -1.4205 H         1 <0>         0.0639
     47 H13        -0.4391    5.7819    2.0872 H         1 <0>         0.2954
     48 H14         5.1484    3.2102    0.1103 H         1 <0>         0.2954
@<TRIPOS>BOND
     1    1   23 1
     2    2   24 1
     3    3   25 1
     4    4   26 1
     5    5   31 1
     6    6   32 1
     7    7   19 2
     8    8   20 2
     9    9   33 1
    10    9   47 1
    11   10   34 1
    12   10   48 1
    13   11   33 2
    14   12   34 2
    15   13   19 am
    16   13   21 1
    17   13   43 1
    18   14   20 am
    19   14   22 1
    20   14   44 1
    21   15   16 1
    22   15   17 1
    23   15   35 1
    24   15   36 1
    25   16   18 1
    26   16   37 1
    27   16   38 1
    28   17   19 1
    29   17   39 1
    30   17   40 1
    31   18   20 1
    32   18   41 1
    33   18   42 1
    34   21   23 ar
    35   21   25 ar
    36   22   24 ar
    37   22   26 ar
    38   23   27 ar
    39   24   28 ar
    40   25   29 ar
    41   26   30 ar
    42   27   31 ar
    43   27   33 1
    44   28   32 ar
    45   28   34 1
    46   29   31 ar
    47   29   45 1
    48   30   32 ar
    49   30   46 1
