@<TRIPOS>MOLECULE
DB04339
   20    19     0     0     0
SMALL
USER_CHARGES

@<TRIPOS>ATOM
      1 S1          0.7680    0.4489    0.5552 S.3       1 <0>        -0.1474
      2 O1         -2.5406    2.0947    0.5021 O.3       1 <0>        -0.4795
      3 O2         -2.1117    1.3198   -1.5863 O.2       1 <0>        -0.2492
      4 O3          4.4744    0.1506   -0.5704 O.3       1 <0>        -0.4800
      5 O4          3.5561    1.0557    1.3014 O.2       1 <0>        -0.2501
      6 N1         -2.9022   -1.1768   -0.2418 N.3       1 <0>        -0.3178
      7 C1         -1.9172   -0.2209    0.2680 C.3       1 <0>         0.1123
      8 C2         -0.5017   -0.7181   -0.0309 C.3       1 <0>         0.0198
      9 C3         -2.2043    1.1205   -0.3806 C.2       1 <0>         0.3225
     10 C4          2.2248   -0.4317   -0.0495 C.3       1 <0>         0.0910
     11 C5          3.4608    0.3407    0.3119 C.2       1 <0>         0.3147
     12 H1         -2.0554   -0.1300    1.3523 H         1 <0>         0.0582
     13 H2         -0.3320   -1.6854    0.4550 H         1 <0>         0.0397
     14 H3         -0.3656   -0.8500   -1.1107 H         1 <0>         0.0397
     15 H4          2.1584   -0.5136   -1.1384 H         1 <0>         0.0490
     16 H5          2.2912   -1.4273    0.3978 H         1 <0>         0.0490
     17 H6         -3.8368   -0.8932    0.0510 H         1 <0>         0.1190
     18 H7         -2.7396   -2.0915    0.1777 H         1 <0>         0.1190
     19 H8         -2.7040    2.9526    0.0555 H         1 <0>         0.2951
     20 H9          5.2775    0.6548   -0.3193 H         1 <0>         0.2951
@<TRIPOS>BOND
     1    1    8 1
     2    1   10 1
     3    2    9 1
     4    2   19 1
     5    3    9 2
     6    4   11 1
     7    4   20 1
     8    5   11 2
     9    6    7 1
    10    6   17 1
    11    6   18 1
    12    7    8 1
    13    7    9 1
    14    7   12 1
    15    8   13 1
    16    8   14 1
    17   10   11 1
    18   10   15 1
    19   10   16 1
