@<TRIPOS>MOLECULE
DB04908
   49    52     0     0     0
SMALL
USER_CHARGES

@<TRIPOS>ATOM
      1 F1         -7.6263    2.6826    0.0412 F         1 <0>        -0.1659
      2 F2         -5.8365    3.3148    1.0903 F         1 <0>        -0.1659
      3 F3         -5.8774    3.3181   -1.0839 F         1 <0>        -0.1659
      4 O1          4.6300   -2.9862    0.9151 O.2       1 <0>        -0.2465
      5 N1          0.2837   -1.2457    0.0323 N.3       1 <0>        -0.2977
      6 N2         -2.4958   -0.6027   -0.1094 N.pl3     1 <0>        -0.3274
      7 N3          3.9267   -0.7349    0.6003 N.am      1 <0>        -0.2910
      8 N4          6.1072   -1.2666    0.2420 N.am      1 <0>        -0.3060
      9 C1         -0.2130    0.0243    0.5761 C.3       1 <0>         0.0147
     10 C2         -0.5092   -1.6303   -1.1417 C.3       1 <0>         0.0147
     11 C3         -1.6785   -0.0958    1.0002 C.3       1 <0>         0.0250
     12 C4         -1.9852   -1.8047   -0.7758 C.3       1 <0>         0.0250
     13 C5          1.6991   -1.1348   -0.3184 C.3       1 <0>         0.0172
     14 C6          2.5275   -0.8205    0.9187 C.3       1 <0>         0.0409
     15 C7         -3.8735   -0.3601   -0.0757 C.ar      1 <0>         0.0303
     16 C8          4.6081    0.4310    0.2123 C.ar      1 <0>         0.0697
     17 C9          4.8521   -1.8187    0.6260 C.2       1 <0>         0.3276
     18 C10        -4.3790    0.9553   -0.0508 C.ar      1 <0>        -0.0290
     19 C11         5.9435    0.0965   -0.0052 C.ar      1 <0>         0.0670
     20 C12        -4.7976   -1.4241   -0.0656 C.ar      1 <0>        -0.0406
     21 C13        -5.7523    1.1966   -0.0174 C.ar      1 <0>         0.0566
     22 C14         4.1511    1.7213    0.0428 C.ar      1 <0>        -0.0360
     23 C15        -6.1710   -1.1828   -0.0326 C.ar      1 <0>        -0.0595
     24 C16         6.8824    1.0240   -0.3992 C.ar      1 <0>        -0.0362
     25 C17        -6.6484    0.1276   -0.0083 C.ar      1 <0>        -0.0500
     26 C18         5.0865    2.6816   -0.3571 C.ar      1 <0>        -0.0597
     27 C19         6.4370    2.3368   -0.5756 C.ar      1 <0>        -0.0597
     28 C20        -6.2633    2.5972    0.0092 C.3       1 <0>         0.4175
     29 H1         -0.1056    0.8333   -0.1589 H         1 <0>         0.0442
     30 H2          0.3169    0.3273    1.4823 H         1 <0>         0.0442
     31 H3         -0.1432   -2.5811   -1.5482 H         1 <0>         0.0442
     32 H4         -0.4151   -0.8776   -1.9363 H         1 <0>         0.0442
     33 H5         -1.7710   -0.7773    1.8559 H         1 <0>         0.0476
     34 H6         -2.0197    0.8909    1.3346 H         1 <0>         0.0476
     35 H7         -2.5438   -2.0027   -1.6991 H         1 <0>         0.0476
     36 H8         -2.1013   -2.6743   -0.1161 H         1 <0>         0.0476
     37 H9          1.8590   -0.3682   -1.0883 H         1 <0>         0.0444
     38 H10         2.0492   -2.0847   -0.7430 H         1 <0>         0.0444
     39 H11         2.4013   -1.6243    1.6548 H         1 <0>         0.0506
     40 H12         2.2636    0.1170    1.4118 H         1 <0>         0.0506
     41 H13        -3.6913    1.7988   -0.0700 H         1 <0>         0.0641
     42 H14        -4.4627   -2.4584   -0.0709 H         1 <0>         0.0636
     43 H15         6.9822   -1.7693    0.1581 H         1 <0>         0.1704
     44 H16         3.1156    1.9963    0.2044 H         1 <0>         0.0639
     45 H17        -6.8688   -2.0150   -0.0225 H         1 <0>         0.0618
     46 H18         7.9191    0.7575   -0.5668 H         1 <0>         0.0639
     47 H19        -7.7215    0.2953    0.0183 H         1 <0>         0.0623
     48 H20         4.7696    3.7111   -0.5036 H         1 <0>         0.0618
     49 H21         7.1397    3.1058   -0.8862 H         1 <0>         0.0618
@<TRIPOS>BOND
     1    1   28 1
     2    2   28 1
     3    3   28 1
     4    4   17 2
     5    5    9 1
     6    5   10 1
     7    5   13 1
     8    6   11 1
     9    6   12 1
    10    6   15 1
    11    7   14 1
    12    7   16 2
    13    7   17 am
    14    8   17 am
    15    8   19 2
    16    8   43 1
    17    9   11 1
    18    9   29 1
    19    9   30 1
    20   10   12 1
    21   10   31 1
    22   10   32 1
    23   11   33 1
    24   11   34 1
    25   12   35 1
    26   12   36 1
    27   13   14 1
    28   13   37 1
    29   13   38 1
    30   14   39 1
    31   14   40 1
    32   15   18 ar
    33   15   20 ar
    34   16   19 ar
    35   16   22 ar
    36   18   21 ar
    37   18   41 1
    38   19   24 ar
    39   20   23 ar
    40   20   42 1
    41   21   25 ar
    42   21   28 1
    43   22   26 ar
    44   22   44 1
    45   23   25 ar
    46   23   45 1
    47   24   27 ar
    48   24   46 1
    49   25   47 1
    50   26   27 ar
    51   26   48 1
    52   27   49 1
