@<TRIPOS>MOLECULE
DB04876
   47    50     0     0     0
SMALL
USER_CHARGES

@<TRIPOS>ATOM
      1 O1          2.9750    2.0232   -2.0241 O.3       1 <0>        -0.3885
      2 O2         -2.3959   -2.3757   -0.3332 O.2       1 <0>        -0.2742
      3 N1          0.0535   -1.4117   -0.1532 N.3       1 <0>        -0.3025
      4 N2         -3.4775   -0.3532   -0.0228 N.am      1 <0>        -0.2846
      5 N3         -5.5984   -1.5318   -2.4552 N.1       1 <0>        -0.1946
      6 C1          1.3511   -0.7494   -0.0368 C.3       1 <0>         0.0227
      7 C2          2.8566    1.0222   -1.0230 C.3       1 <0>         0.0683
      8 C3          2.8609    0.6174    1.4637 C.3       1 <0>        -0.0365
      9 C4          3.8565   -1.0964   -0.0972 C.3       1 <0>        -0.0365
     10 C5          1.4859    0.3284   -1.1328 C.3       1 <0>        -0.0056
     11 C6          1.4916   -0.0776    1.3481 C.3       1 <0>        -0.0316
     12 C7          2.4838   -1.7857   -0.2097 C.3       1 <0>        -0.0316
     13 C8          2.9819    1.6809    0.3610 C.3       1 <0>        -0.0210
     14 C9          3.9736   -0.0226   -1.1905 C.3       1 <0>        -0.0210
     15 C10         3.9755   -0.4275    1.2831 C.3       1 <0>        -0.0471
     16 C11        -1.0305   -0.4523   -0.0079 C.3       1 <0>         0.0738
     17 C12        -2.3558   -1.1600   -0.1355 C.2       1 <0>         0.2304
     18 C13        -4.8383   -0.8922   -0.0182 C.3       1 <0>         0.1129
     19 C14        -3.4776    1.0895    0.2111 C.3       1 <0>         0.0160
     20 C15        -5.6820    0.2482    0.5542 C.3       1 <0>        -0.0196
     21 C16        -4.9379    1.5008    0.0992 C.3       1 <0>        -0.0345
     22 C17        -5.2632   -1.2498   -1.3808 C.1       1 <0>         0.0851
     23 H1          2.9545    1.0909    2.4474 H         1 <0>         0.0302
     24 H2          4.6538   -1.8381   -0.2194 H         1 <0>         0.0302
     25 H3          1.3672   -0.1071   -2.1345 H         1 <0>         0.0311
     26 H4          0.7343    1.1222   -1.0592 H         1 <0>         0.0311
     27 H5          1.3848   -0.8192    2.1506 H         1 <0>         0.0286
     28 H6          0.7381    0.6970    1.5239 H         1 <0>         0.0286
     29 H7          2.4023   -2.2835   -1.1851 H         1 <0>         0.0286
     30 H8          2.4054   -2.5716    0.5531 H         1 <0>         0.0286
     31 H9          2.2102    2.4519    0.4844 H         1 <0>         0.0296
     32 H10         3.9413    2.2079    0.4449 H         1 <0>         0.0296
     33 H11         4.9572    0.4626   -1.1451 H         1 <0>         0.0296
     34 H12         3.9147   -0.4803   -2.1865 H         1 <0>         0.0296
     35 H13         4.9571    0.0519    1.3828 H         1 <0>         0.0271
     36 H14         3.9096   -1.1855    2.0734 H         1 <0>         0.0271
     37 H15        -0.0286   -2.1289    0.5675 H         1 <0>         0.1229
     38 H16         3.8510    2.4357   -1.9348 H         1 <0>         0.2102
     39 H17        -1.0450    0.0304    0.9715 H         1 <0>         0.0520
     40 H18        -1.0306    0.2934   -0.8051 H         1 <0>         0.0520
     41 H19        -4.8771   -1.7788    0.6244 H         1 <0>         0.0659
     42 H20        -2.8425    1.6065   -0.5130 H         1 <0>         0.0465
     43 H21        -3.0910    1.2682    1.2202 H         1 <0>         0.0465
     44 H22        -5.6670    0.2039    1.6507 H         1 <0>         0.0294
     45 H23        -6.7268    0.2387    0.2282 H         1 <0>         0.0294
     46 H24        -5.1880    1.7269   -0.9443 H         1 <0>         0.0281
     47 H25        -5.1738    2.3804    0.7043 H         1 <0>         0.0281
@<TRIPOS>BOND
     1    1    7 1
     2    1   38 1
     3    2   17 2
     4    3    6 1
     5    3   16 1
     6    3   37 1
     7    4   17 am
     8    4   18 1
     9    4   19 1
    10    5   22 3
    11    6   10 1
    12    6   11 1
    13    6   12 1
    14    7   10 1
    15    7   13 1
    16    7   14 1
    17    8   11 1
    18    8   13 1
    19    8   15 1
    20    8   23 1
    21    9   12 1
    22    9   14 1
    23    9   15 1
    24    9   24 1
    25   10   25 1
    26   10   26 1
    27   11   27 1
    28   11   28 1
    29   12   29 1
    30   12   30 1
    31   13   31 1
    32   13   32 1
    33   14   33 1
    34   14   34 1
    35   15   35 1
    36   15   36 1
    37   16   17 1
    38   16   39 1
    39   16   40 1
    40   18   20 1
    41   18   22 1
    42   18   41 1
    43   19   21 1
    44   19   42 1
    45   19   43 1
    46   20   21 1
    47   20   44 1
    48   20   45 1
    49   21   46 1
    50   21   47 1
