@<TRIPOS>MOLECULE
DB04948
   28    29     0     0     0
SMALL
USER_CHARGES

@<TRIPOS>ATOM
      1 Cl1         2.6858    2.5922    0.3922 Cl        1 <0>        -0.0797
      2 Cl2         0.3801   -2.3172    0.7929 Cl        1 <0>        -0.0797
      3 O1          0.4642    0.6644    0.8978 O.3       1 <0>        -0.4741
      4 N1         -2.1078   -0.6418   -0.9465 N.pl3     1 <0>        -0.2306
      5 N2         -2.4577    0.4264    1.0453 N.2       1 <0>        -0.0803
      6 C1         -0.4172    0.9914   -0.1703 C.3       1 <0>         0.1984
      7 C2         -1.7023    0.2434   -0.0021 C.2       1 <0>         0.3217
      8 C3         -3.3596   -1.2149   -0.5503 C.3       1 <0>         0.1195
      9 C4         -3.6086   -0.5004    0.7920 C.3       1 <0>         0.1673
     10 C5         -0.6386    2.4947   -0.1613 C.3       1 <0>        -0.0163
     11 C6          1.6542    0.0777    0.5573 C.ar      1 <0>         0.1582
     12 C7          2.7686    0.8712    0.2963 C.ar      1 <0>         0.0840
     13 C8          1.7442   -1.3098    0.4742 C.ar      1 <0>         0.0840
     14 C9          3.9806    0.2736   -0.0501 C.ar      1 <0>        -0.0397
     15 C10         2.9563   -1.9071    0.1277 C.ar      1 <0>        -0.0397
     16 C11         4.0744   -1.1154   -0.1342 C.ar      1 <0>        -0.0588
     17 H1          0.0138    0.7121   -1.1422 H         1 <0>         0.0858
     18 H2         -3.2804   -2.2979   -0.4180 H         1 <0>         0.0765
     19 H3         -4.1495   -0.9935   -1.2741 H         1 <0>         0.0765
     20 H4         -4.5388    0.0767    0.7609 H         1 <0>         0.0829
     21 H5         -3.6793   -1.2232    1.6118 H         1 <0>         0.0829
     22 H6         -1.6220   -0.8802   -1.8022 H         1 <0>         0.2913
     23 H7          0.1935    3.0220   -0.6329 H         1 <0>         0.0271
     24 H8         -0.7377    2.8816    0.8589 H         1 <0>         0.0271
     25 H9         -1.5413    2.7658   -0.7199 H         1 <0>         0.0271
     26 H10         4.8611    0.8767   -0.2572 H         1 <0>         0.0633
     27 H11         3.0458   -2.9882    0.0578 H         1 <0>         0.0633
     28 H12         5.0181   -1.5805   -0.4038 H         1 <0>         0.0618
@<TRIPOS>BOND
     1    1   12 1
     2    2   13 1
     3    3    6 1
     4    3   11 1
     5    4    7 1
     6    4    8 1
     7    4   22 1
     8    5    7 2
     9    5    9 1
    10    6    7 1
    11    6   10 1
    12    6   17 1
    13    8    9 1
    14    8   18 1
    15    8   19 1
    16    9   20 1
    17    9   21 1
    18   10   23 1
    19   10   24 1
    20   10   25 1
    21   11   12 ar
    22   11   13 ar
    23   12   14 ar
    24   13   15 ar
    25   14   16 ar
    26   14   26 1
    27   15   16 ar
    28   15   27 1
    29   16   28 1
