@<TRIPOS>MOLECULE
DB04115
   43    47     0     0     0
SMALL
USER_CHARGES

@<TRIPOS>ATOM
      1 O1         -6.5321    0.1399    0.0426 O.3       1 <0>        -0.4526
      2 O2         -5.4002    2.2505   -0.2148 O.3       1 <0>        -0.4526
      3 O3          3.9043   -1.2910   -0.3210 O.3       1 <0>        -0.4907
      4 O4          5.4199    0.9153    0.2927 O.3       1 <0>        -0.4914
      5 N1         -0.2797   -1.0388   -0.3112 N.ar      1 <0>        -0.1961
      6 C1         -1.0472   -2.2540   -0.6842 C.3       1 <0>         0.1550
      7 C2         -2.2707   -2.3801    0.2028 C.3       1 <0>         0.0330
      8 C3         -0.9121    0.1360   -0.0238 C.ar      1 <0>         0.2159
      9 C4         -3.0797   -1.1186    0.0909 C.ar      1 <0>        -0.0243
     10 C5         -2.3885    0.1178   -0.0338 C.ar      1 <0>         0.0533
     11 C6          1.0709   -1.1213   -0.3179 C.ar      1 <0>         0.1831
     12 C7         -0.1366    1.2643    0.2935 C.ar      1 <0>         0.0183
     13 C8          1.8770   -0.0253   -0.0148 C.ar      1 <0>         0.0909
     14 C9          1.2604    1.1952    0.3000 C.ar      1 <0>        -0.0022
     15 C10        -4.4819   -1.1775    0.1384 C.ar      1 <0>        -0.0120
     16 C11        -3.1535    1.2951   -0.1509 C.ar      1 <0>        -0.0025
     17 C12        -5.1787    0.0040    0.0284 C.ar      1 <0>         0.1665
     18 C13        -4.5327    1.2056   -0.1168 C.ar      1 <0>         0.1670
     19 C14         3.2787   -0.1144   -0.0171 C.ar      1 <0>         0.1748
     20 C15         2.0589    2.3087    0.6124 C.ar      1 <0>        -0.0499
     21 C16         4.0600    0.9986    0.2933 C.ar      1 <0>         0.1623
     22 C17        -6.6661    1.5672   -0.1136 C.3       1 <0>         0.2332
     23 C18         3.4506    2.2094    0.6084 C.ar      1 <0>        -0.0157
     24 C19         4.1800   -2.1722    0.7634 C.3       1 <0>         0.0790
     25 C20         6.0863    1.2041   -0.9347 C.3       1 <0>         0.0790
     26 H1         -0.4095   -3.1359   -0.5659 H         1 <0>         0.1034
     27 H2         -1.3049   -2.1392   -1.7440 H         1 <0>         0.1034
     28 H3         -1.9804   -2.5247    1.2502 H         1 <0>         0.0375
     29 H4         -2.8573   -3.2502   -0.1123 H         1 <0>         0.0375
     30 H5          1.4794   -2.0897   -0.5842 H         1 <0>         0.1384
     31 H6         -0.6169    2.2052    0.5530 H         1 <0>         0.0690
     32 H7         -5.0021   -2.1229    0.2500 H         1 <0>         0.0658
     33 H8         -2.6915    2.2698   -0.2722 H         1 <0>         0.0663
     34 H9          1.6019    3.2642    0.8605 H         1 <0>         0.0625
     35 H10        -7.2119    1.9651    0.7496 H         1 <0>         0.1166
     36 H11        -7.2473    1.7683   -1.0209 H         1 <0>         0.1166
     37 H12         4.0512    3.0814    0.8526 H         1 <0>         0.0655
     38 H13         4.6134   -3.0900    0.3566 H         1 <0>         0.0660
     39 H14         3.2649   -2.4299    1.3056 H         1 <0>         0.0660
     40 H15         4.9037   -1.7202    1.4488 H         1 <0>         0.0660
     41 H16         5.8902    2.2358   -1.2436 H         1 <0>         0.0660
     42 H17         5.7685    0.5100   -1.7192 H         1 <0>         0.0660
     43 H18         7.1616    1.0846   -0.7771 H         1 <0>         0.0660
@<TRIPOS>BOND
     1    1   17 1
     2    1   22 1
     3    2   18 1
     4    2   22 1
     5    3   19 1
     6    3   24 1
     7    4   21 1
     8    4   25 1
     9    5    6 1
    10    5    8 ar
    11    5   11 ar
    12    6    7 1
    13    6   26 1
    14    6   27 1
    15    7    9 1
    16    7   28 1
    17    7   29 1
    18    8   10 1
    19    8   12 ar
    20    9   10 ar
    21    9   15 ar
    22   10   16 ar
    23   11   13 ar
    24   11   30 1
    25   12   14 ar
    26   12   31 1
    27   13   14 ar
    28   13   19 ar
    29   14   20 ar
    30   15   17 ar
    31   15   32 1
    32   16   18 ar
    33   16   33 1
    34   17   18 ar
    35   19   21 ar
    36   20   23 ar
    37   20   34 1
    38   21   23 ar
    39   22   35 1
    40   22   36 1
    41   23   37 1
    42   24   38 1
    43   24   39 1
    44   24   40 1
    45   25   41 1
    46   25   42 1
    47   25   43 1
