@<TRIPOS>MOLECULE
DB04821
   36    38     0     0     0
SMALL
USER_CHARGES

@<TRIPOS>ATOM
      1 N1         -0.4808   -1.9330    0.1761 N.3       1 <0>        -0.3002
      2 N2         -3.9561    0.5059    0.8745 N.pl3     1 <0>        -0.3577
      3 C1          0.5975   -0.0852   -1.0935 C.3       1 <0>         0.0223
      4 C2          0.2657   -1.5953   -1.0432 C.3       1 <0>         0.0098
      5 C3         -0.5944    0.7812   -0.7231 C.ar      1 <0>        -0.0326
      6 C4         -1.7944   -1.2696    0.1700 C.3       1 <0>         0.0258
      7 C5         -1.7159    0.2173   -0.0885 C.ar      1 <0>        -0.0090
      8 C6          1.8484    0.2327   -0.2812 C.ar      1 <0>        -0.0387
      9 C7         -2.8038    1.0357    0.2477 C.ar      1 <0>         0.0293
     10 C8         -0.5769    2.1582   -0.9968 C.ar      1 <0>        -0.0575
     11 C9         -0.6398   -3.3808    0.3055 C.3       1 <0>        -0.0124
     12 C10        -2.7725    2.4028   -0.0256 C.ar      1 <0>        -0.0407
     13 C11         1.7317    0.5597    1.0661 C.ar      1 <0>        -0.0579
     14 C12         3.0970    0.1939   -0.8933 C.ar      1 <0>        -0.0579
     15 C13        -1.6601    2.9634   -0.6474 C.ar      1 <0>        -0.0597
     16 C14         2.8758    0.8510    1.8090 C.ar      1 <0>        -0.0615
     17 C15         4.2412    0.4850   -0.1504 C.ar      1 <0>        -0.0615
     18 C16         4.1305    0.8135    1.2007 C.ar      1 <0>        -0.0617
     19 H1          0.8203    0.1461   -2.1459 H         1 <0>         0.0410
     20 H2         -0.3285   -1.8658   -1.9279 H         1 <0>         0.0436
     21 H3          1.1942   -2.1785   -1.0988 H         1 <0>         0.0436
     22 H4         -2.2333   -1.4408    1.1596 H         1 <0>         0.0476
     23 H5         -2.4545   -1.7144   -0.5867 H         1 <0>         0.0476
     24 H6          0.2832    2.6102   -1.4847 H         1 <0>         0.0621
     25 H7         -1.1730   -3.6287    1.2299 H         1 <0>         0.0391
     26 H8          0.3387   -3.8699    0.3676 H         1 <0>         0.0391
     27 H9         -1.1892   -3.8152   -0.5375 H         1 <0>         0.0391
     28 H10        -3.6109    3.0427    0.2377 H         1 <0>         0.0636
     29 H11         0.7728    0.5828    1.5743 H         1 <0>         0.0620
     30 H12         3.1962   -0.0628   -1.9444 H         1 <0>         0.0620
     31 H13        -1.6365    4.0277   -0.8623 H         1 <0>         0.0618
     32 H14        -4.7296    1.1214    1.0910 H         1 <0>         0.1423
     33 H15        -4.0730   -0.4886    1.0040 H         1 <0>         0.1423
     34 H16         2.7905    1.1032    2.8618 H         1 <0>         0.0618
     35 H17         5.2182    0.4552   -0.6236 H         1 <0>         0.0618
     36 H18         5.0213    1.0392    1.7794 H         1 <0>         0.0618
@<TRIPOS>BOND
     1    1    4 1
     2    1    6 1
     3    1   11 1
     4    2    9 1
     5    2   32 1
     6    2   33 1
     7    3    4 1
     8    3    5 1
     9    3    8 1
    10    3   19 1
    11    4   20 1
    12    4   21 1
    13    5    7 ar
    14    5   10 ar
    15    6    7 1
    16    6   22 1
    17    6   23 1
    18    7    9 ar
    19    8   13 ar
    20    8   14 ar
    21    9   12 ar
    22   10   15 ar
    23   10   24 1
    24   11   25 1
    25   11   26 1
    26   11   27 1
    27   12   15 ar
    28   12   28 1
    29   13   16 ar
    30   13   29 1
    31   14   17 ar
    32   14   30 1
    33   15   31 1
    34   16   18 ar
    35   16   34 1
    36   17   18 ar
    37   17   35 1
    38   18   36 1
