@<TRIPOS>MOLECULE
DB04743
   33    34     0     0     0
SMALL
USER_CHARGES

@<TRIPOS>ATOM
      1 S1         -3.2054    1.9618   -0.4681 S.o2      1 <0>         0.0404
      2 O1          0.4383    0.7551    0.5511 O.3       1 <0>        -0.4539
      3 O2         -3.4933    3.1207   -1.2922 O.2       1 <0>        -0.1555
      4 O3         -4.2458    1.0008   -0.1589 O.2       1 <0>        -0.1555
      5 O4         -1.2665   -4.9197    0.5475 O.3       1 <0>        -0.5760
      6 O5          0.4788   -4.0923    1.5909 O.2       1 <0>         0.0414
      7 N1         -1.8106    1.1776   -1.1027 N.pl3     1 <0>        -0.2173
      8 N2         -0.5310   -3.9519    0.8594 N.pl3     1 <0>         0.0797
      9 C1         -1.4773   -0.1178   -0.5983 C.ar      1 <0>         0.0902
     10 C2         -0.3599   -0.2978    0.2169 C.ar      1 <0>         0.1571
     11 C3         -2.2819   -1.2080   -0.9297 C.ar      1 <0>        -0.0293
     12 C4         -0.0469   -1.5681    0.7006 C.ar      1 <0>         0.0597
     13 C5         -0.8512   -2.6584    0.3691 C.ar      1 <0>         0.2768
     14 C6         -1.9688   -2.4783   -0.4461 C.ar      1 <0>         0.0176
     15 C7         -2.5514    2.5716    1.0696 C.3       1 <0>         0.0736
     16 C8          1.7694    0.6957    0.1770 C.ar      1 <0>         0.1285
     17 C9          2.0926    0.2825   -1.1034 C.ar      1 <0>        -0.0193
     18 C10         2.7440    1.0497    1.0929 C.ar      1 <0>        -0.0193
     19 C11         3.4342    0.2216   -1.4801 C.ar      1 <0>        -0.0583
     20 C12         4.0856    0.9890    0.7163 C.ar      1 <0>        -0.0583
     21 C13         4.4307    0.5748   -0.5702 C.ar      1 <0>        -0.0615
     22 H1         -0.9943    1.7878   -1.2449 H         1 <0>         0.1734
     23 H2         -3.1478   -1.0871   -1.5753 H         1 <0>         0.0640
     24 H3          0.8213   -1.6873    1.3450 H         1 <0>         0.0723
     25 H4         -2.6161   -3.3050   -0.7277 H         1 <0>         0.0686
     26 H5         -1.6846    3.2020    0.8631 H         1 <0>         0.0482
     27 H6         -3.3309    3.1645    1.5538 H         1 <0>         0.0482
     28 H7         -2.2835    1.7286    1.7083 H         1 <0>         0.0482
     29 H8          1.3356    0.0205   -1.8364 H         1 <0>         0.0654
     30 H9          2.4768    1.3717    2.0949 H         1 <0>         0.0654
     31 H10         3.7030   -0.0966   -2.4832 H         1 <0>         0.0619
     32 H11         4.8615    1.2640    1.4247 H         1 <0>         0.0619
     33 H12         5.4753    0.5284   -0.8639 H         1 <0>         0.0618
@<TRIPOS>BOND
     1    1    3 2
     2    1    4 2
     3    1    7 1
     4    1   15 1
     5    2   10 1
     6    2   16 1
     7    5    8 1
     8    6    8 2
     9    7    9 1
    10    7   22 1
    11    8   13 1
    12    9   10 ar
    13    9   11 ar
    14   10   12 ar
    15   11   14 ar
    16   11   23 1
    17   12   13 ar
    18   12   24 1
    19   13   14 ar
    20   14   25 1
    21   15   26 1
    22   15   27 1
    23   15   28 1
    24   16   17 ar
    25   16   18 ar
    26   17   19 ar
    27   17   29 1
    28   18   20 ar
    29   18   30 1
    30   19   21 ar
    31   19   31 1
    32   20   21 ar
    33   20   32 1
    34   21   33 1
