@<TRIPOS>MOLECULE
DB04657
   29    30     0     0     0
SMALL
USER_CHARGES

@<TRIPOS>ATOM
      1 S1         -2.2193   -1.2019   -1.4945 S.3       1 <0>        -0.1136
      2 O1         -3.5835    0.5033    0.7545 O.3       1 <0>        -0.4944
      3 O2          0.1104    1.2315   -1.6765 O.2       1 <0>        -0.2692
      4 N1          0.6995   -0.3445   -0.0287 N.am      1 <0>        -0.2810
      5 C1         -3.9749   -1.0202   -1.1044 C.3       1 <0>         0.0328
      6 C2         -4.1030   -0.7736    0.3842 C.3       1 <0>         0.0984
      7 C3         -1.5759    0.0860   -0.5351 C.2       1 <0>         0.1072
      8 C4         -2.2709    0.7653    0.4009 C.2       1 <0>         0.1130
      9 C5         -0.1665    0.3968   -0.8188 C.2       1 <0>         0.2578
     10 C6         -1.7206    1.9334    1.1721 C.3       1 <0>        -0.0057
     11 C7          2.1152   -0.3055   -0.0312 C.ar      1 <0>         0.0337
     12 C8          2.8162   -1.1261    0.8359 C.ar      1 <0>        -0.0405
     13 C9          2.7665    0.5518   -0.9016 C.ar      1 <0>        -0.0405
     14 C10         4.2106   -1.0883    0.8326 C.ar      1 <0>        -0.0600
     15 C11         4.1608    0.5897   -0.9051 C.ar      1 <0>        -0.0600
     16 C12         4.8828   -0.2304   -0.0378 C.ar      1 <0>        -0.0616
     17 H1         -4.5000   -1.9342   -1.3957 H         1 <0>         0.0413
     18 H2         -4.3798   -0.1813   -1.6797 H         1 <0>         0.0413
     19 H3         -5.1647   -0.7688    0.6546 H         1 <0>         0.0705
     20 H4         -3.6287   -1.5575    0.9890 H         1 <0>         0.0705
     21 H5         -1.7045    1.6974    2.2414 H         1 <0>         0.0308
     22 H6         -2.3598    2.8105    1.0254 H         1 <0>         0.0308
     23 H7         -0.7062    2.2173    0.8804 H         1 <0>         0.0308
     24 H8          0.2884   -0.9976    0.6357 H         1 <0>         0.1551
     25 H9          2.3022   -1.7979    1.5176 H         1 <0>         0.0636
     26 H10         2.2783    1.2151   -1.6002 H         1 <0>         0.0636
     27 H11         4.7729   -1.7266    1.5077 H         1 <0>         0.0618
     28 H12         4.6857    1.2573   -1.5823 H         1 <0>         0.0618
     29 H13         5.9685   -0.2008   -0.0404 H         1 <0>         0.0618
@<TRIPOS>BOND
     1    1    5 1
     2    1    7 1
     3    2    6 1
     4    2    8 1
     5    3    9 2
     6    4    9 am
     7    4   11 1
     8    4   24 1
     9    5    6 1
    10    5   17 1
    11    5   18 1
    12    6   19 1
    13    6   20 1
    14    7    8 2
    15    7    9 1
    16    8   10 1
    17   10   21 1
    18   10   22 1
    19   10   23 1
    20   11   12 ar
    21   11   13 ar
    22   12   14 ar
    23   12   25 1
    24   13   15 ar
    25   13   26 1
    26   14   16 ar
    27   14   27 1
    28   15   16 ar
    29   15   28 1
    30   16   29 1
