@<TRIPOS>MOLECULE
DB04842
   66    70     0     0     0
SMALL
USER_CHARGES

@<TRIPOS>ATOM
      1 F1         -3.4504   -1.8747    4.9277 F         1 <0>        -0.2055
      2 F2         -5.4549    4.7189   -1.2786 F         1 <0>        -0.2055
      3 O1          3.9059   -3.3186   -0.2560 O.2       1 <0>        -0.2734
      4 N1          4.1451    0.1686    0.3484 N.pl3     1 <0>        -0.2998
      5 N2          0.7269   -1.5807   -1.4200 N.3       1 <0>        -0.3022
      6 N3          5.3670   -1.7432    0.6136 N.am      1 <0>        -0.2978
      7 C1          3.2965   -0.9291   -0.1854 C.3       1 <0>         0.1145
      8 C2          3.0572   -0.7859   -1.6994 C.3       1 <0>        -0.0100
      9 C3          2.0158   -1.1226    0.6466 C.3       1 <0>        -0.0100
     10 C4          1.9478   -1.7016   -2.2258 C.3       1 <0>         0.0013
     11 C5          0.9774   -2.0151   -0.0406 C.3       1 <0>         0.0013
     12 C6          4.1873   -2.1642    0.0328 C.2       1 <0>         0.2379
     13 C7          5.4227   -0.3357    0.8381 C.3       1 <0>         0.0793
     14 C8         -0.3521   -2.3723   -2.0128 C.3       1 <0>        -0.0011
     15 C9          3.8612    1.5256    0.4168 C.ar      1 <0>         0.0317
     16 C10        -1.6481   -2.1753   -1.2268 C.3       1 <0>        -0.0394
     17 C11        -2.0651   -0.6975   -1.2116 C.3       1 <0>        -0.0410
     18 C12        -3.4311   -0.4686   -0.5142 C.3       1 <0>         0.0093
     19 C13         2.6283    2.0602   -0.0502 C.ar      1 <0>        -0.0406
     20 C14         4.7874    2.4605    0.9571 C.ar      1 <0>        -0.0406
     21 C15        -3.4371   -0.8498    0.9608 C.ar      1 <0>        -0.0398
     22 C16        -3.9808    0.9394   -0.7223 C.ar      1 <0>        -0.0398
     23 C17         2.3436    3.4239    0.0179 C.ar      1 <0>        -0.0600
     24 C18         4.5027    3.8244    1.0253 C.ar      1 <0>        -0.0600
     25 C19         3.2808    4.3060    0.5558 C.ar      1 <0>        -0.0616
     26 C20        -3.7761   -2.1391    1.3136 C.ar      1 <0>        -0.0553
     27 C21        -5.3464    1.1225   -0.7386 C.ar      1 <0>        -0.0553
     28 C22        -3.1026    0.1069    1.8962 C.ar      1 <0>        -0.0553
     29 C23        -3.0924    1.9800   -0.8863 C.ar      1 <0>        -0.0553
     30 C24        -3.7808   -2.4879    2.6643 C.ar      1 <0>        -0.0262
     31 C25        -5.8484    2.4101   -0.9284 C.ar      1 <0>        -0.0262
     32 C26        -3.1073   -0.2420    3.2468 C.ar      1 <0>        -0.0262
     33 C27        -3.5946    3.2675   -1.0759 C.ar      1 <0>        -0.0262
     34 C28        -3.4464   -1.5394    3.6308 C.ar      1 <0>         0.1234
     35 C29        -4.9726    3.4825   -1.0970 C.ar      1 <0>         0.1234
     36 H1          3.9815   -1.0017   -2.2525 H         1 <0>         0.0303
     37 H2          2.7988    0.2408   -1.9728 H         1 <0>         0.0303
     38 H3          1.5349   -0.1680    0.8777 H         1 <0>         0.0303
     39 H4          2.2616   -1.5593    1.6244 H         1 <0>         0.0303
     40 H5          2.2972   -2.7412   -2.2577 H         1 <0>         0.0427
     41 H6          1.7402   -1.4089   -3.2628 H         1 <0>         0.0427
     42 H7          0.0886   -1.9376    0.5912 H         1 <0>         0.0427
     43 H8          1.2970   -3.0642   -0.0091 H         1 <0>         0.0427
     44 H9          5.5531   -0.1707    1.9124 H         1 <0>         0.0671
     45 H10         6.2728    0.0621    0.2749 H         1 <0>         0.0671
     46 H11        -0.5208   -2.0552   -3.0498 H         1 <0>         0.0426
     47 H12        -0.0990   -3.4400   -2.0393 H         1 <0>         0.0426
     48 H13         6.1209   -2.3783    0.8560 H         1 <0>         0.1503
     49 H14        -2.4321   -2.7478   -1.7403 H         1 <0>         0.0278
     50 H15        -1.5885   -2.6088   -0.2269 H         1 <0>         0.0278
     51 H16        -2.1131   -0.3321   -2.2459 H         1 <0>         0.0275
     52 H17        -1.2892   -0.1227   -0.6930 H         1 <0>         0.0275
     53 H18        -4.1412   -1.1335   -1.0310 H         1 <0>         0.0397
     54 H19         1.8566    1.4306   -0.4800 H         1 <0>         0.0636
     55 H20         5.7538    2.1376    1.3366 H         1 <0>         0.0636
     56 H21         1.3922    3.7996   -0.3475 H         1 <0>         0.0618
     57 H22         5.2320    4.5118    1.4438 H         1 <0>         0.0618
     58 H23         3.0592    5.3679    0.6088 H         1 <0>         0.0618
     59 H24        -4.0431   -2.8841    0.5704 H         1 <0>         0.0621
     60 H25        -6.0353    0.2938   -0.6066 H         1 <0>         0.0621
     61 H26        -2.8073    1.1173    1.6404 H         1 <0>         0.0621
     62 H27        -2.0159    1.8607   -0.8595 H         1 <0>         0.0621
     63 H28        -4.0457   -3.4976    2.9638 H         1 <0>         0.0646
     64 H29        -6.9212    2.5780   -0.9444 H         1 <0>         0.0646
     65 H30        -2.8411    0.4942    3.9995 H         1 <0>         0.0646
     66 H31        -2.9133    4.1037   -1.2032 H         1 <0>         0.0646
@<TRIPOS>BOND
     1    1   34 1
     2    2   35 1
     3    3   12 2
     4    4    7 1
     5    4   13 1
     6    4   15 1
     7    5   10 1
     8    5   11 1
     9    5   14 1
    10    6   12 am
    11    6   13 1
    12    6   48 1
    13    7    8 1
    14    7    9 1
    15    7   12 1
    16    8   10 1
    17    8   36 1
    18    8   37 1
    19    9   11 1
    20    9   38 1
    21    9   39 1
    22   10   40 1
    23   10   41 1
    24   11   42 1
    25   11   43 1
    26   13   44 1
    27   13   45 1
    28   14   16 1
    29   14   46 1
    30   14   47 1
    31   15   19 ar
    32   15   20 ar
    33   16   17 1
    34   16   49 1
    35   16   50 1
    36   17   18 1
    37   17   51 1
    38   17   52 1
    39   18   21 1
    40   18   22 1
    41   18   53 1
    42   19   23 ar
    43   19   54 1
    44   20   24 ar
    45   20   55 1
    46   21   26 ar
    47   21   28 ar
    48   22   27 ar
    49   22   29 ar
    50   23   25 ar
    51   23   56 1
    52   24   25 ar
    53   24   57 1
    54   25   58 1
    55   26   30 ar
    56   26   59 1
    57   27   31 ar
    58   27   60 1
    59   28   32 ar
    60   28   61 1
    61   29   33 ar
    62   29   62 1
    63   30   34 ar
    64   30   63 1
    65   31   35 ar
    66   31   64 1
    67   32   34 ar
    68   32   65 1
    69   33   35 ar
    70   33   66 1
