@<TRIPOS>MOLECULE
DB04815
   18    19     0     0     0
SMALL
USER_CHARGES

@<TRIPOS>ATOM
      1 I1          4.2976    0.5262    0.0013 I         1 <0>        -0.0399
      2 Cl1         0.2001   -3.3494    0.0011 Cl        1 <0>        -0.0828
      3 O1          1.6247    2.3530    0.0002 O.3       1 <0>        -0.5036
      4 N1         -1.0080    1.6824   -0.0000 N.ar      1 <0>        -0.2512
      5 C1         -0.4373   -0.6589   -0.0001 C.ar      1 <0>         0.0223
      6 C2         -0.0809    0.7059   -0.0001 C.ar      1 <0>         0.1146
      7 C3          1.2733    1.0291   -0.0005 C.ar      1 <0>         0.1558
      8 C4          0.5569   -1.6520   -0.0005 C.ar      1 <0>         0.0513
      9 C5         -1.8003   -0.9849   -0.0000 C.ar      1 <0>        -0.0496
     10 C6          2.2620    0.0419   -0.0006 C.ar      1 <0>         0.0583
     11 C7          1.9036   -1.3004   -0.0006 C.ar      1 <0>        -0.0260
     12 C8         -2.7579    0.0191    0.0000 C.ar      1 <0>        -0.0430
     13 C9         -2.3127    1.3254    0.0001 C.ar      1 <0>         0.0284
     14 H1         -2.1522   -2.0126   -0.0001 H         1 <0>         0.0625
     15 H2          2.6672   -2.0752   -0.0004 H         1 <0>         0.0644
     16 H3         -3.8161   -0.2144    0.0002 H         1 <0>         0.0633
     17 H4         -3.0154    2.1523    0.0002 H         1 <0>         0.0830
     18 H5          2.5955    2.4124   -0.0001 H         1 <0>         0.2923
@<TRIPOS>BOND
     1    1   10 1
     2    2    8 1
     3    3    7 1
     4    3   18 1
     5    4    6 ar
     6    4   13 ar
     7    5    6 ar
     8    5    8 ar
     9    5    9 ar
    10    6    7 ar
    11    7   10 ar
    12    8   11 ar
    13    9   12 ar
    14    9   14 1
    15   10   11 ar
    16   11   15 1
    17   12   13 ar
    18   12   16 1
    19   13   17 1
