@<TRIPOS>MOLECULE
DB04896
   40    41     0     0     0
SMALL
USER_CHARGES

@<TRIPOS>ATOM
      1 O1          0.8035    1.0009    2.0211 O.2       1 <0>        -0.2746
      2 N1          1.9953   -0.1815    0.4063 N.am      1 <0>        -0.3013
      3 N2         -2.6697    3.2165    0.6076 N.3       1 <0>        -0.3297
      4 C1         -0.2791    0.6867   -0.0259 C.3       1 <0>         0.0763
      5 C2         -0.7065    2.0925   -0.2997 C.3       1 <0>        -0.0094
      6 C3          0.0071    1.3026   -1.3571 C.3       1 <0>        -0.0294
      7 C4         -2.1400    2.4263   -0.5006 C.3       1 <0>        -0.0028
      8 C5         -1.2844   -0.4003    0.0530 C.ar      1 <0>        -0.0321
      9 C6          0.8865    0.5177    0.8950 C.2       1 <0>         0.2264
     10 C7         -1.5802   -1.1701   -1.0767 C.ar      1 <0>        -0.0576
     11 C8         -1.9427   -0.6656    1.2582 C.ar      1 <0>        -0.0576
     12 C9          3.3512    0.0990    0.8588 C.3       1 <0>         0.0118
     13 C10         1.8701   -1.2403   -0.5911 C.3       1 <0>         0.0118
     14 C11        -2.5241   -2.1943   -1.0018 C.ar      1 <0>        -0.0615
     15 C12        -2.8865   -1.6898    1.3330 C.ar      1 <0>        -0.0615
     16 C13        -3.1774   -2.4541    0.2031 C.ar      1 <0>        -0.0617
     17 C14         4.0016    1.1439    0.0112 C.3       1 <0>        -0.0493
     18 C15         1.6786   -2.5744    0.0543 C.3       1 <0>        -0.0493
     19 H1         -0.1423    2.9170    0.1245 H         1 <0>         0.0327
     20 H2          1.0214    1.6092   -1.5947 H         1 <0>         0.0282
     21 H3         -0.5630    1.0681   -2.2480 H         1 <0>         0.0282
     22 H4         -2.7857    1.5599   -0.6670 H         1 <0>         0.0425
     23 H5         -2.2210    3.0413   -1.4048 H         1 <0>         0.0425
     24 H6         -1.0914   -1.0125   -2.0327 H         1 <0>         0.0621
     25 H7         -1.7357   -0.0755    2.1470 H         1 <0>         0.0621
     26 H8         -2.6789    2.6478    1.4537 H         1 <0>         0.1182
     27 H9         -3.6425    3.4537    0.4169 H         1 <0>         0.1182
     28 H10         3.3009    0.4630    1.8913 H         1 <0>         0.0462
     29 H11         3.9360   -0.8269    0.8687 H         1 <0>         0.0462
     30 H12         1.0624   -1.0462   -1.2900 H         1 <0>         0.0462
     31 H13         2.7816   -1.2520   -1.2007 H         1 <0>         0.0462
     32 H14        -2.7492   -2.7916   -1.8806 H         1 <0>         0.0618
     33 H15        -3.3966   -1.8910    2.2704 H         1 <0>         0.0618
     34 H16        -3.9122   -3.2517    0.2614 H         1 <0>         0.0618
     35 H17         5.0111    1.3610    0.3744 H         1 <0>         0.0245
     36 H18         3.4313    2.0790    0.0235 H         1 <0>         0.0245
     37 H19         4.0822    0.8235   -1.0328 H         1 <0>         0.0245
     38 H20         1.5763   -3.3572   -0.7042 H         1 <0>         0.0245
     39 H21         0.7829   -2.5962    0.6831 H         1 <0>         0.0245
     40 H22         2.5292   -2.8383    0.6918 H         1 <0>         0.0245
@<TRIPOS>BOND
     1    1    9 2
     2    2    9 am
     3    2   12 1
     4    2   13 1
     5    3    7 1
     6    3   26 1
     7    3   27 1
     8    4    5 1
     9    4    6 1
    10    4    8 1
    11    4    9 1
    12    5    6 1
    13    5    7 1
    14    5   19 1
    15    6   20 1
    16    6   21 1
    17    7   22 1
    18    7   23 1
    19    8   10 ar
    20    8   11 ar
    21   10   14 ar
    22   10   24 1
    23   11   15 ar
    24   11   25 1
    25   12   17 1
    26   12   28 1
    27   12   29 1
    28   13   18 1
    29   13   30 1
    30   13   31 1
    31   14   16 ar
    32   14   32 1
    33   15   16 ar
    34   15   33 1
    35   16   34 1
    36   17   35 1
    37   17   36 1
    38   17   37 1
    39   18   38 1
    40   18   39 1
    41   18   40 1
