@<TRIPOS>MOLECULE
DB04817
   38    39     0     0     0
SMALL
USER_CHARGES

@<TRIPOS>ATOM
      1 S1          3.3470   -1.0984    1.5561 S.o2      1 <0>         0.0963
      2 O1          0.0785   -1.9776   -0.5709 O.2       1 <0>        -0.2638
      3 O2          4.2567   -2.4250    1.8223 O.3       1 <0>        -0.2527
      4 O3          4.1858    0.0747    1.6917 O.2       1 <0>        -0.1458
      5 O4          2.1009   -1.2382    2.2814 O.2       1 <0>        -0.1458
      6 N1         -0.6987    1.3079    0.2157 N.pl3     1 <0>        -0.2823
      7 N2         -1.1207   -0.0184    0.0399 N.am      1 <0>        -0.2156
      8 N3          2.3571   -0.2757   -0.8562 N.pl3     1 <0>        -0.3065
      9 C1          1.1396    0.1610   -0.4717 C.2       1 <0>         0.1186
     10 C2          0.6434    1.3657   -0.1523 C.2       1 <0>         0.0593
     11 C3         -0.0084   -0.7854   -0.3221 C.2       1 <0>         0.2932
     12 C4          3.0374   -1.3909   -0.1816 C.3       1 <0>         0.1581
     13 C5         -2.4821   -0.3954   -0.0756 C.ar      1 <0>         0.0674
     14 C6          1.3988    2.6519   -0.1212 C.3       1 <0>        -0.0208
     15 C7         -1.1904    2.0468    1.3745 C.3       1 <0>         0.0292
     16 C8          3.0027    0.2226   -2.0748 C.3       1 <0>         0.0025
     17 C9         -2.8511   -1.7407    0.0220 C.ar      1 <0>        -0.0362
     18 C10        -3.4661    0.5751   -0.2881 C.ar      1 <0>        -0.0362
     19 C11        -4.1910   -2.1117   -0.0915 C.ar      1 <0>        -0.0598
     20 C12        -4.8058    0.2040   -0.4016 C.ar      1 <0>        -0.0598
     21 C13        -5.1683   -1.1394   -0.3034 C.ar      1 <0>        -0.0616
     22 H1          4.0235   -1.5527   -0.6335 H         1 <0>         0.0733
     23 H2          2.4766   -2.3249   -0.2733 H         1 <0>         0.0733
     24 H3          2.4383    2.5299   -0.4400 H         1 <0>         0.0293
     25 H4          1.4173    3.0673    0.8913 H         1 <0>         0.0293
     26 H5          0.9294    3.3830   -0.7874 H         1 <0>         0.0293
     27 H6         -1.1691    3.1225    1.1704 H         1 <0>         0.0472
     28 H7         -0.5585    1.8492    2.2483 H         1 <0>         0.0472
     29 H8         -2.2134    1.7881    1.6583 H         1 <0>         0.0472
     30 H9          3.9870    0.6376   -1.8349 H         1 <0>         0.0428
     31 H10         2.4120    1.0070   -2.5606 H         1 <0>         0.0428
     32 H11         3.1299   -0.5935   -2.7940 H         1 <0>         0.0428
     33 H12        -2.1254   -2.5238    0.2155 H         1 <0>         0.0639
     34 H13        -3.2228    1.6268   -0.4089 H         1 <0>         0.0639
     35 H14        -4.4745   -3.1568   -0.0089 H         1 <0>         0.0618
     36 H15        -5.5664    0.9598   -0.5752 H         1 <0>         0.0618
     37 H16        -6.2114   -1.4282   -0.3923 H         1 <0>         0.0618
     38 H17         5.1623   -2.4041    1.4325 H         1 <0>         0.2445
@<TRIPOS>BOND
     1    1    3 1
     2    1    4 2
     3    1    5 2
     4    1   12 1
     5    2   11 2
     6    3   38 1
     7    6    7 2
     8    6   10 1
     9    6   15 1
    10    7   11 am
    11    7   13 1
    12    8    9 1
    13    8   12 1
    14    8   16 1
    15    9   10 2
    16    9   11 1
    17   10   14 1
    18   12   22 1
    19   12   23 1
    20   13   17 ar
    21   13   18 ar
    22   14   24 1
    23   14   25 1
    24   14   26 1
    25   15   27 1
    26   15   28 1
    27   15   29 1
    28   16   30 1
    29   16   31 1
    30   16   32 1
    31   17   19 ar
    32   17   33 1
    33   18   20 ar
    34   18   34 1
    35   19   21 ar
    36   19   35 1
    37   20   21 ar
    38   20   36 1
    39   21   37 1
