@<TRIPOS>MOLECULE
DB04173
   24    24     0     0     0
SMALL
USER_CHARGES

@<TRIPOS>ATOM
      1 O1         -0.0516   -1.0608    0.3982 O.3       1 <0>        -0.3364
      2 O2         -1.2526    2.1967   -0.5640 O.3       1 <0>        -0.3837
      3 O3         -1.2094   -0.3580   -1.5195 O.3       1 <0>        -0.3608
      4 O4          1.5659    2.1088    0.6352 O.3       1 <0>        -0.3864
      5 O5         -2.7696   -1.8976    0.1771 O.3       1 <0>        -0.3896
      6 O6          2.4958   -2.2599    0.3124 O.3       1 <0>        -0.3924
      7 C1         -0.6362    1.2031    0.2305 C.3       1 <0>         0.1392
      8 C2         -1.1005   -0.2113   -0.1028 C.3       1 <0>         0.2205
      9 C3          0.8467    1.1013   -0.0520 C.3       1 <0>         0.1144
     10 C4          1.1612   -0.2869    0.4945 C.3       1 <0>         0.1134
     11 C5         -2.4220   -0.5767    0.5556 C.3       1 <0>         0.1006
     12 C6          2.2684   -0.9886   -0.2730 C.3       1 <0>         0.0730
     13 H1         -0.8069    1.4464    1.2870 H         1 <0>         0.0675
     14 H2          1.0647    1.2016   -1.1213 H         1 <0>         0.0648
     15 H3          1.4252   -0.2484    1.5587 H         1 <0>         0.0647
     16 H4         -3.2298    0.0888    0.2349 H         1 <0>         0.0612
     17 H5         -2.3464   -0.5521    1.6469 H         1 <0>         0.0612
     18 H6          3.2013   -0.4187   -0.2357 H         1 <0>         0.0584
     19 H7          1.9927   -1.1490   -1.3204 H         1 <0>         0.0584
     20 H8         -0.8150    3.0420   -0.3656 H         1 <0>         0.2101
     21 H9         -0.7234    0.3566   -1.9612 H         1 <0>         0.2129
     22 H10         2.5130    1.9345    0.5007 H         1 <0>         0.2100
     23 H11        -2.8297   -1.9188   -0.7934 H         1 <0>         0.2096
     24 H12         1.6581   -2.7530    0.2772 H         1 <0>         0.2095
@<TRIPOS>BOND
     1    1    8 1
     2    1   10 1
     3    2    7 1
     4    2   20 1
     5    3    8 1
     6    3   21 1
     7    4    9 1
     8    4   22 1
     9    5   11 1
    10    5   23 1
    11    6   12 1
    12    6   24 1
    13    7    8 1
    14    7    9 1
    15    7   13 1
    16    8   11 1
    17    9   10 1
    18    9   14 1
    19   10   12 1
    20   10   15 1
    21   11   16 1
    22   11   17 1
    23   12   18 1
    24   12   19 1
