@<TRIPOS>MOLECULE
DB04845
   77    79     0     0     0
SMALL
USER_CHARGES

@<TRIPOS>ATOM
      1 S1         -4.9948   -3.6297   -1.1803 S.3       1 <0>        -0.0802
      2 O1         -1.5490    4.7827    0.6298 O.3       1 <0>        -0.3650
      3 O2          4.0452    0.9756   -1.1853 O.3       1 <0>        -0.3908
      4 O3          0.4134   -2.9376    2.0546 O.3       1 <0>        -0.3904
      5 O4          4.5492   -1.2401    0.6067 O.2       1 <0>        -0.2964
      6 O5         -0.4629   -0.0980    3.7824 O.2       1 <0>        -0.2757
      7 N1         -0.6084    0.5063    1.5458 N.am      1 <0>        -0.3086
      8 N2         -5.0209   -1.0447   -1.1919 N.2       1 <0>        -0.2449
      9 C1         -0.2004    4.3240    0.5321 C.3       1 <0>         0.0933
     10 C2         -1.2577    3.5336    1.2883 C.3       1 <0>         0.0901
     11 C3          0.2519    4.0204   -0.8634 C.3       1 <0>        -0.0215
     12 C4         -2.0438    2.3807    0.7296 C.3       1 <0>        -0.0015
     13 C5          0.7120    5.1828    1.3521 C.3       1 <0>        -0.0334
     14 C6          1.1325    2.7772   -0.8682 C.3       1 <0>        -0.0501
     15 C7         -1.9349    1.1156    1.5981 C.3       1 <0>         0.0469
     16 C8          1.6847    2.4053   -2.2465 C.3       1 <0>        -0.0480
     17 C9          1.9566    0.8824   -2.4096 C.3       1 <0>        -0.0171
     18 C10         2.7800    0.3091   -1.2247 C.3       1 <0>         0.0670
     19 C11         2.9779   -1.2222   -1.2134 C.3       1 <0>         0.0415
     20 C12        -2.9179    0.0817    1.1432 C.2       1 <0>        -0.0505
     21 C13         2.5874   -2.6149    1.0200 C.3       1 <0>         0.0500
     22 C14         0.6336    0.1392   -2.6346 C.3       1 <0>        -0.0601
     23 C15         3.4690   -1.6570    0.1773 C.2       1 <0>         0.1466
     24 C16         1.2236   -1.9539    1.3984 C.3       1 <0>         0.0752
     25 C17         1.3408   -0.7343    2.3294 C.3       1 <0>         0.0509
     26 C18        -0.0013   -0.0840    2.6422 C.2       1 <0>         0.2160
     27 C19         3.9482   -1.7324   -2.2755 C.3       1 <0>        -0.0533
     28 C20        -3.9344   -0.3050    2.1853 C.3       1 <0>        -0.0417
     29 C21         2.3492   -3.9056    0.2050 C.3       1 <0>        -0.0507
     30 C22         3.3735   -3.0342    2.2840 C.3       1 <0>        -0.0507
     31 C23        -2.9567   -0.4736   -0.0850 C.2       1 <0>        -0.0351
     32 C24        -3.8721   -1.4654   -0.5767 C.2       1 <0>         0.0713
     33 C25        -3.6670   -2.8106   -0.4681 C.2       1 <0>         0.0027
     34 C26        -5.6989   -2.1105   -1.5560 C.2       1 <0>         0.0759
     35 C27        -7.0021   -2.0756   -2.2554 C.3       1 <0>        -0.0159
     36 H1         -1.2627    3.5593    2.3712 H         1 <0>         0.0625
     37 H2          0.8051    4.8728   -1.2757 H         1 <0>         0.0294
     38 H3         -0.6099    3.8635   -1.5236 H         1 <0>         0.0294
     39 H4         -1.7458    2.1736   -0.3035 H         1 <0>         0.0312
     40 H5         -3.0966    2.6920    0.6910 H         1 <0>         0.0312
     41 H6          0.2828    5.4315    2.3291 H         1 <0>         0.0258
     42 H7          1.6622    4.6695    1.5301 H         1 <0>         0.0258
     43 H8          0.9238    6.1247    0.8352 H         1 <0>         0.0258
     44 H9          0.5376    1.9516   -0.4817 H         1 <0>         0.0266
     45 H10         1.9683    2.9101   -0.1704 H         1 <0>         0.0266
     46 H11        -2.1348    1.3871    2.6423 H         1 <0>         0.0546
     47 H12         0.9952    2.7319   -3.0347 H         1 <0>         0.0269
     48 H13         2.6166    2.9606   -2.4110 H         1 <0>         0.0269
     49 H14         2.5474    0.7794   -3.3297 H         1 <0>         0.0323
     50 H15         2.2794    0.5661   -0.2883 H         1 <0>         0.0603
     51 H16         2.0120   -1.7026   -1.3799 H         1 <0>         0.0400
     52 H17        -0.1701    0.4032    0.6371 H         1 <0>         0.1493
     53 H18         0.0591    0.0487   -1.7088 H         1 <0>         0.0233
     54 H19         0.0105    0.6564   -3.3722 H         1 <0>         0.0233
     55 H20         0.8105   -0.8680   -3.0244 H         1 <0>         0.0233
     56 H21         0.6848   -1.6739    0.4875 H         1 <0>         0.0607
     57 H22         1.9947    0.0311    1.9007 H         1 <0>         0.0384
     58 H23         1.7677   -1.0255    3.2962 H         1 <0>         0.0384
     59 H24         4.0114   -2.8256   -2.2441 H         1 <0>         0.0237
     60 H25         3.6202   -1.4459   -3.2792 H         1 <0>         0.0237
     61 H26         4.9629   -1.3504   -2.1223 H         1 <0>         0.0237
     62 H27        -3.4311   -0.7442    3.0534 H         1 <0>         0.0275
     63 H28        -4.4835    0.5825    2.5190 H         1 <0>         0.0275
     64 H29        -4.6780   -1.0290    1.8417 H         1 <0>         0.0275
     65 H30         3.2896   -4.2915   -0.2055 H         1 <0>         0.0240
     66 H31         1.9097   -4.6973    0.8223 H         1 <0>         0.0240
     67 H32         1.6696   -3.7385   -0.6367 H         1 <0>         0.0240
     68 H33         3.6556   -2.1720    2.8971 H         1 <0>         0.0240
     69 H34         2.8054   -3.7273    2.9126 H         1 <0>         0.0240
     70 H35         4.3079   -3.5398    2.0098 H         1 <0>         0.0240
     71 H36        -2.2119   -0.1533   -0.8101 H         1 <0>         0.0639
     72 H37         4.4602    0.8872   -2.0597 H         1 <0>         0.2098
     73 H38         0.7457   -3.0563    2.9599 H         1 <0>         0.2098
     74 H39        -2.8408   -3.3499   -0.0256 H         1 <0>         0.0715
     75 H40        -7.7791   -2.5705   -1.6638 H         1 <0>         0.0298
     76 H41        -7.3198   -1.0414   -2.4236 H         1 <0>         0.0298
     77 H42        -6.9377   -2.5673   -3.2314 H         1 <0>         0.0298
@<TRIPOS>BOND
     1    1   33 1
     2    1   34 1
     3    2    9 1
     4    2   10 1
     5    3   18 1
     6    3   72 1
     7    4   24 1
     8    4   73 1
     9    5   23 2
    10    6   26 2
    11    7   15 1
    12    7   26 am
    13    7   52 1
    14    8   32 1
    15    8   34 2
    16    9   10 1
    17    9   11 1
    18    9   13 1
    19   10   12 1
    20   10   36 1
    21   11   14 1
    22   11   37 1
    23   11   38 1
    24   12   15 1
    25   12   39 1
    26   12   40 1
    27   13   41 1
    28   13   42 1
    29   13   43 1
    30   14   16 1
    31   14   44 1
    32   14   45 1
    33   15   20 1
    34   15   46 1
    35   16   17 1
    36   16   47 1
    37   16   48 1
    38   17   18 1
    39   17   22 1
    40   17   49 1
    41   18   19 1
    42   18   50 1
    43   19   23 1
    44   19   27 1
    45   19   51 1
    46   20   28 1
    47   20   31 2
    48   21   23 1
    49   21   24 1
    50   21   29 1
    51   21   30 1
    52   22   53 1
    53   22   54 1
    54   22   55 1
    55   24   25 1
    56   24   56 1
    57   25   26 1
    58   25   57 1
    59   25   58 1
    60   27   59 1
    61   27   60 1
    62   27   61 1
    63   28   62 1
    64   28   63 1
    65   28   64 1
    66   29   65 1
    67   29   66 1
    68   29   67 1
    69   30   68 1
    70   30   69 1
    71   30   70 1
    72   31   32 1
    73   31   71 1
    74   32   33 2
    75   33   74 1
    76   34   35 1
    77   35   75 1
    78   35   76 1
    79   35   77 1
