@<TRIPOS>MOLECULE
DB04834
  104   109     0     0     0
SMALL
USER_CHARGES

@<TRIPOS>ATOM
      1 O1         -4.1365   -1.7583   -0.0009 O.3       1 <0>        -0.4551
      2 O2          6.4218    1.8958   -0.6169 O.3       1 <0>        -0.4599
      3 O3         -3.1888   -3.5930   -1.0303 O.2       1 <0>        -0.2509
      4 O4          6.9212    2.9362    1.3843 O.2       1 <0>        -0.2512
      5 N1         -5.0274    0.8830   -0.1540 N.4       1 <0>         0.2509
      6 N2          5.8697   -0.9211   -0.4816 N.3       1 <0>        -0.2959
      7 C1         -1.4378    0.6138   -0.7569 C.3       1 <0>        -0.0238
      8 C2         -1.9182   -0.6158    0.0415 C.3       1 <0>         0.0136
      9 C3         -0.1219    1.1886   -0.2205 C.3       1 <0>        -0.0341
     10 C4          0.9778    0.0840   -0.3261 C.3       1 <0>        -0.0322
     11 C5          2.3914    0.5974    0.1424 C.3       1 <0>        -0.0245
     12 C6         -3.8240    0.4988   -1.0248 C.3       1 <0>         0.0199
     13 C7         -3.2509   -0.8986   -0.6893 C.3       1 <0>         0.1508
     14 C8         -2.6768    1.5054   -0.8138 C.3       1 <0>        -0.0024
     15 C9          2.7337    1.8942   -0.6488 C.3       1 <0>        -0.0319
     16 C10        -0.8623   -1.7215   -0.1167 C.3       1 <0>        -0.0435
     17 C11         0.5298   -1.2468    0.3401 C.3       1 <0>        -0.0488
     18 C12         0.2904    2.4502   -0.9884 C.3       1 <0>        -0.0494
     19 C13         1.6499    2.9746   -0.5400 C.3       1 <0>        -0.0493
     20 C14         3.4812   -0.4807   -0.1683 C.3       1 <0>        -0.0280
     21 C15        -2.1503   -0.3537    1.5505 C.3       1 <0>        -0.0557
     22 C16         4.1114    2.4763   -0.2847 C.3       1 <0>        -0.0108
     23 C17         4.8181    0.0716   -0.7010 C.3       1 <0>         0.0479
     24 C18         2.3899    0.8650    1.6713 C.3       1 <0>        -0.0590
     25 C19         5.1958    1.4116   -0.0674 C.3       1 <0>         0.1188
     26 C20        -4.5778    0.8674    1.3118 C.3       1 <0>        -0.0294
     27 C21        -5.4832    2.2875   -0.5659 C.3       1 <0>        -0.0294
     28 C22        -6.1215   -0.1530   -0.4099 C.3       1 <0>        -0.0111
     29 C23        -5.6535    1.4155    2.2408 C.3       1 <0>        -0.0122
     30 C24        -6.5563    2.8326    0.3679 C.3       1 <0>        -0.0122
     31 C25        -6.1097    2.8066    1.8230 C.3       1 <0>        -0.0434
     32 C26         6.0638   -1.1549    0.9562 C.3       1 <0>        -0.0007
     33 C27         5.5511   -2.1715   -1.1850 C.3       1 <0>        -0.0007
     34 C28        -4.0029   -3.1008   -0.2613 C.2       1 <0>         0.3073
     35 C29        -6.1915   -0.5817   -1.8385 C.2       1 <0>        -0.0465
     36 C30         7.1943   -2.1546    1.2049 C.3       1 <0>        -0.0402
     37 C31         6.6650   -3.2044   -1.0064 C.3       1 <0>        -0.0402
     38 C32         6.9467   -3.4665    0.4687 C.3       1 <0>        -0.0507
     39 C33        -5.0153   -3.8761    0.5488 C.3       1 <0>         0.0421
     40 C34         7.1882    2.6479    0.2256 C.2       1 <0>         0.3043
     41 C35        -6.9684    0.0041   -2.7562 C.2       1 <0>        -0.0977
     42 C36        -4.9310   -5.3702    0.2903 C.3       1 <0>        -0.0552
     43 C37         8.4355    3.0836   -0.4817 C.3       1 <0>         0.0332
     44 H1         -1.2418    0.2997   -1.7964 H         1 <0>         0.0312
     45 H2         -0.2581    1.4668    0.8305 H         1 <0>         0.0306
     46 H3          1.0750   -0.1443   -1.4000 H         1 <0>         0.0309
     47 H4         -4.1183    0.5639   -2.0791 H         1 <0>         0.0889
     48 H5         -3.0146   -1.3396   -1.6700 H         1 <0>         0.0797
     49 H6         -2.7053    2.1695    0.0481 H         1 <0>         0.0324
     50 H7         -2.6092    2.1692   -1.6855 H         1 <0>         0.0324
     51 H8          2.7826    1.6190   -1.7140 H         1 <0>         0.0307
     52 H9         -1.1430   -2.6115    0.4585 H         1 <0>         0.0272
     53 H10        -0.7944   -2.0335   -1.1667 H         1 <0>         0.0272
     54 H11         0.5608   -1.1631    1.4282 H         1 <0>         0.0268
     55 H12         1.2437   -2.0406    0.0903 H         1 <0>         0.0268
     56 H13        -0.4559    3.2402   -0.8454 H         1 <0>         0.0268
     57 H14         0.3232    2.2384   -2.0648 H         1 <0>         0.0268
     58 H15         1.5796    3.3508    0.4874 H         1 <0>         0.0268
     59 H16         1.9208    3.8340   -1.1658 H         1 <0>         0.0268
     60 H17         3.0874   -1.1182   -0.9728 H         1 <0>         0.0287
     61 H18         3.5393   -1.1444    0.6944 H         1 <0>         0.0287
     62 H19        -1.2441   -0.6142    2.1100 H         1 <0>         0.0236
     63 H20        -2.8634   -1.0380    2.0134 H         1 <0>         0.0236
     64 H21        -2.2350    0.6869    1.8420 H         1 <0>         0.0236
     65 H22         4.0389    3.0949    0.6196 H         1 <0>         0.0304
     66 H23         4.4162    3.1714   -1.0788 H         1 <0>         0.0304
     67 H24         4.7385    0.2358   -1.7851 H         1 <0>         0.0499
     68 H25         1.6232    1.5852    1.9682 H         1 <0>         0.0235
     69 H26         2.2126   -0.0515    2.2428 H         1 <0>         0.0235
     70 H27         3.3453    1.2586    2.0268 H         1 <0>         0.0235
     71 H28         5.2853    1.2974    1.0167 H         1 <0>         0.0750
     72 H29        -3.7616    1.5597    1.4475 H         1 <0>         0.0815
     73 H30        -4.4547   -0.1557    1.6295 H         1 <0>         0.0815
     74 H31        -5.8330    2.2558   -1.6015 H         1 <0>         0.0815
     75 H32        -4.6252    2.9644   -0.5254 H         1 <0>         0.0815
     76 H33        -6.0700   -0.9847    0.2947 H         1 <0>         0.0862
     77 H34        -7.0741    0.3142   -0.1399 H         1 <0>         0.0862
     78 H35        -5.2691    1.4501    3.2671 H         1 <0>         0.0317
     79 H36        -6.5183    0.7408    2.2562 H         1 <0>         0.0317
     80 H37        -7.5000    2.2894    0.2564 H         1 <0>         0.0317
     81 H38        -6.7776    3.8687    0.0839 H         1 <0>         0.0317
     82 H39        -6.9308    3.1377    2.4689 H         1 <0>         0.0269
     83 H40        -5.2874    3.5188    1.9654 H         1 <0>         0.0269
     84 H41         6.3832   -0.2495    1.4783 H         1 <0>         0.0427
     85 H42         5.1909   -1.5450    1.4837 H         1 <0>         0.0427
     86 H43         4.6230   -2.6341   -0.8298 H         1 <0>         0.0427
     87 H44         5.4338   -1.9782   -2.2583 H         1 <0>         0.0427
     88 H45        -5.6170   -1.4488   -2.1507 H         1 <0>         0.0619
     89 H46         7.2930   -2.3472    2.2796 H         1 <0>         0.0278
     90 H47         8.1466   -1.7233    0.8701 H         1 <0>         0.0278
     91 H48         7.5799   -2.8455   -1.4949 H         1 <0>         0.0278
     92 H49         6.3857   -4.1414   -1.5016 H         1 <0>         0.0278
     93 H50         7.8141   -4.1270    0.5745 H         1 <0>         0.0266
     94 H51         6.0904   -3.9833    0.9191 H         1 <0>         0.0266
     95 H52        -4.8326   -3.6783    1.6102 H         1 <0>         0.0375
     96 H53        -6.0167   -3.5212    0.2841 H         1 <0>         0.0375
     97 H54        -7.5964    0.8539   -2.5136 H         1 <0>         0.0534
     98 H55        -6.9912   -0.3692   -3.7742 H         1 <0>         0.0534
     99 H56        -5.1131   -5.5973   -0.7655 H         1 <0>         0.0235
    100 H57        -3.9407   -5.7588    0.5503 H         1 <0>         0.0235
    101 H58        -5.6758   -5.9033    0.8888 H         1 <0>         0.0235
    102 H59         9.0141    2.2076   -0.7856 H         1 <0>         0.0342
    103 H60         9.0459    3.6859    0.1972 H         1 <0>         0.0342
    104 H61         8.1750    3.6938   -1.3501 H         1 <0>         0.0342
@<TRIPOS>BOND
     1    1   13 1
     2    1   34 1
     3    2   25 1
     4    2   40 1
     5    3   34 2
     6    4   40 2
     7    5   12 1
     8    5   26 1
     9    5   27 1
    10    5   28 1
    11    6   23 1
    12    6   32 1
    13    6   33 1
    14    7    8 1
    15    7    9 1
    16    7   14 1
    17    7   44 1
    18    8   13 1
    19    8   16 1
    20    8   21 1
    21    9   10 1
    22    9   18 1
    23    9   45 1
    24   10   11 1
    25   10   17 1
    26   10   46 1
    27   11   15 1
    28   11   20 1
    29   11   24 1
    30   12   13 1
    31   12   14 1
    32   12   47 1
    33   13   48 1
    34   14   49 1
    35   14   50 1
    36   15   19 1
    37   15   22 1
    38   15   51 1
    39   16   17 1
    40   16   52 1
    41   16   53 1
    42   17   54 1
    43   17   55 1
    44   18   19 1
    45   18   56 1
    46   18   57 1
    47   19   58 1
    48   19   59 1
    49   20   23 1
    50   20   60 1
    51   20   61 1
    52   21   62 1
    53   21   63 1
    54   21   64 1
    55   22   25 1
    56   22   65 1
    57   22   66 1
    58   23   25 1
    59   23   67 1
    60   24   68 1
    61   24   69 1
    62   24   70 1
    63   25   71 1
    64   26   29 1
    65   26   72 1
    66   26   73 1
    67   27   30 1
    68   27   74 1
    69   27   75 1
    70   28   35 1
    71   28   76 1
    72   28   77 1
    73   29   31 1
    74   29   78 1
    75   29   79 1
    76   30   31 1
    77   30   80 1
    78   30   81 1
    79   31   82 1
    80   31   83 1
    81   32   36 1
    82   32   84 1
    83   32   85 1
    84   33   37 1
    85   33   86 1
    86   33   87 1
    87   34   39 1
    88   35   41 2
    89   35   88 1
    90   36   38 1
    91   36   89 1
    92   36   90 1
    93   37   38 1
    94   37   91 1
    95   37   92 1
    96   38   93 1
    97   38   94 1
    98   39   42 1
    99   39   95 1
   100   39   96 1
   101   40   43 1
   102   41   97 1
   103   41   98 1
   104   42   99 1
   105   42  100 1
   106   42  101 1
   107   43  102 1
   108   43  103 1
   109   43  104 1
