@<TRIPOS>MOLECULE
DB04846
   60    60     0     0     0
SMALL
USER_CHARGES

@<TRIPOS>ATOM
      1 O1          2.1635   -2.0895    1.0375 O.3       1 <0>        -0.4887
      2 O2          4.8958   -2.5375    1.2939 O.3       1 <0>        -0.3872
      3 O3         -3.9593    0.1009    1.9102 O.2       1 <0>        -0.2523
      4 O4          1.7988   -0.5590    3.2104 O.2       1 <0>        -0.2922
      5 N1          3.9065    0.0919   -1.1131 N.3       1 <0>        -0.3088
      6 N2         -5.1399    0.2185   -0.0774 N.am      1 <0>        -0.2859
      7 N3         -3.2305   -1.1849    0.1076 N.am      1 <0>        -0.2693
      8 C1          4.0296    1.5525   -1.0621 C.3       1 <0>         0.0108
      9 C2          4.4659   -0.5099    0.0855 C.3       1 <0>         0.0256
     10 C3          4.3588   -2.0366    0.0663 C.3       1 <0>         0.1015
     11 C4          3.4179    2.1392   -2.3387 C.3       1 <0>        -0.0473
     12 C5          3.2712    2.0635    0.1675 C.3       1 <0>        -0.0473
     13 C6          5.5111    1.9350   -0.9639 C.3       1 <0>        -0.0473
     14 C7          2.9247   -2.5405   -0.0787 C.3       1 <0>         0.1166
     15 C8          0.8319   -1.8558    0.8201 C.ar      1 <0>         0.1312
     16 C9          0.1526   -0.8879    1.5536 C.ar      1 <0>         0.0605
     17 C10        -1.8742   -1.4090    0.3461 C.ar      1 <0>         0.0357
     18 C11         0.1675   -2.6020   -0.1487 C.ar      1 <0>        -0.0175
     19 C12        -1.2037   -0.6639    1.3162 C.ar      1 <0>        -0.0264
     20 C13        -1.1887   -2.3781   -0.3863 C.ar      1 <0>        -0.0369
     21 C14        -5.2990   -0.2040   -1.4674 C.3       1 <0>         0.0133
     22 C15        -6.1340    1.1638    0.4148 C.3       1 <0>         0.0133
     23 C16        -4.0882   -0.2594    0.7381 C.2       1 <0>         0.3064
     24 C17         0.8346   -0.0982    2.5694 C.2       1 <0>         0.1637
     25 C18        -6.1719   -1.4372   -1.5760 C.3       1 <0>        -0.0492
     26 C19        -5.7001    2.5965    0.1831 C.3       1 <0>        -0.0492
     27 C20         0.3759    1.3233    2.8716 C.3       1 <0>        -0.0013
     28 H1          4.3869   -0.2712   -1.9361 H         1 <0>         0.1225
     29 H2          5.5313   -0.2878    0.2087 H         1 <0>         0.0451
     30 H3          3.9716   -0.1727    1.0019 H         1 <0>         0.0451
     31 H4          4.9713   -2.4380   -0.7501 H         1 <0>         0.0640
     32 H5          2.3607    1.8657   -2.4360 H         1 <0>         0.0247
     33 H6          3.4771    3.2336   -2.3398 H         1 <0>         0.0247
     34 H7          3.9392    1.7800   -3.2338 H         1 <0>         0.0247
     35 H8          3.7871    1.8760    1.1149 H         1 <0>         0.0247
     36 H9          2.2630    1.6370    0.2271 H         1 <0>         0.0247
     37 H10         3.1486    3.1525    0.1084 H         1 <0>         0.0247
     38 H11         5.9500    1.7402    0.0203 H         1 <0>         0.0247
     39 H12         5.6348    3.0113   -1.1375 H         1 <0>         0.0247
     40 H13         6.1146    1.4213   -1.7217 H         1 <0>         0.0247
     41 H14         2.5244   -2.1885   -1.0373 H         1 <0>         0.0723
     42 H15         2.9204   -3.6369   -0.0677 H         1 <0>         0.0723
     43 H16         4.8543   -3.5083    1.2568 H         1 <0>         0.2100
     44 H17         0.6511   -3.3897   -0.7183 H         1 <0>         0.0655
     45 H18        -1.7085    0.1000    1.8930 H         1 <0>         0.0644
     46 H19        -1.7008   -2.9711   -1.1400 H         1 <0>         0.0637
     47 H20        -4.3248   -0.3821   -1.9330 H         1 <0>         0.0462
     48 H21        -5.7517    0.6185   -2.0338 H         1 <0>         0.0462
     49 H22        -6.2645    1.0042    1.4909 H         1 <0>         0.0462
     50 H23        -7.0991    0.9653   -0.0634 H         1 <0>         0.0462
     51 H24        -3.6216   -1.7450   -0.6429 H         1 <0>         0.1564
     52 H25        -5.7547   -2.2806   -1.0173 H         1 <0>         0.0245
     53 H26        -7.1755   -1.2471   -1.1820 H         1 <0>         0.0245
     54 H27        -6.2727   -1.7396   -2.6230 H         1 <0>         0.0245
     55 H28        -4.7474    2.8055    0.6811 H         1 <0>         0.0245
     56 H29        -5.5695    2.8047   -0.8837 H         1 <0>         0.0245
     57 H30        -6.4498    3.2903    0.5760 H         1 <0>         0.0245
     58 H31        -0.3951    1.3043    3.6456 H         1 <0>         0.0309
     59 H32         0.0001    1.8116    1.9684 H         1 <0>         0.0309
     60 H33         1.2326    1.9054    3.2245 H         1 <0>         0.0309
@<TRIPOS>BOND
     1    1   14 1
     2    1   15 1
     3    2   10 1
     4    2   43 1
     5    3   23 2
     6    4   24 2
     7    5    8 1
     8    5    9 1
     9    5   28 1
    10    6   21 1
    11    6   22 1
    12    6   23 am
    13    7   17 1
    14    7   23 am
    15    7   51 1
    16    8   11 1
    17    8   12 1
    18    8   13 1
    19    9   10 1
    20    9   29 1
    21    9   30 1
    22   10   14 1
    23   10   31 1
    24   11   32 1
    25   11   33 1
    26   11   34 1
    27   12   35 1
    28   12   36 1
    29   12   37 1
    30   13   38 1
    31   13   39 1
    32   13   40 1
    33   14   41 1
    34   14   42 1
    35   15   16 ar
    36   15   18 ar
    37   16   19 ar
    38   16   24 1
    39   17   19 ar
    40   17   20 ar
    41   18   20 ar
    42   18   44 1
    43   19   45 1
    44   20   46 1
    45   21   25 1
    46   21   47 1
    47   21   48 1
    48   22   26 1
    49   22   49 1
    50   22   50 1
    51   24   27 1
    52   25   52 1
    53   25   53 1
    54   25   54 1
    55   26   55 1
    56   26   56 1
    57   26   57 1
    58   27   58 1
    59   27   59 1
    60   27   60 1
