@<TRIPOS>MOLECULE
DB04574
   46    49     0     0     0
SMALL
USER_CHARGES

@<TRIPOS>ATOM
      1 S1         -6.1669   -0.0875   -1.0656 S.o2      1 <0>         0.2513
      2 O1          5.2988   -1.5249    0.0817 O.2       1 <0>        -0.2968
      3 O2         -5.4376    0.1088    0.3954 O.3       1 <0>        -0.3250
      4 O3         -7.7257    0.3033   -0.7791 O.3       1 <0>        -0.2222
      5 O4         -5.6270    0.8856   -1.9972 O.2       1 <0>        -0.1077
      6 O5         -6.1279   -1.5013   -1.3916 O.2       1 <0>        -0.1077
      7 C1          2.4785    0.4899    0.3188 C.3       1 <0>        -0.0252
      8 C2          2.9959   -0.8322   -0.2858 C.3       1 <0>         0.0293
      9 C3          0.9823    0.6661    0.0651 C.3       1 <0>        -0.0302
     10 C4          0.2259   -0.4918    0.7880 C.3       1 <0>        -0.0124
     11 C5          2.3251   -1.9807    0.4597 C.3       1 <0>        -0.0401
     12 C6          3.4677    1.5388   -0.1766 C.3       1 <0>        -0.0424
     13 C7          0.7893   -1.8803    0.3775 C.3       1 <0>        -0.0450
     14 C8          0.4463    2.0043    0.5756 C.3       1 <0>        -0.0454
     15 C9          4.4774   -0.6246   -0.0289 C.2       1 <0>         0.1395
     16 C10         4.8250    0.8532    0.0409 C.3       1 <0>         0.0067
     17 C11         2.8331   -0.9896   -1.8093 C.3       1 <0>        -0.0526
     18 C12        -1.2856   -0.3379    0.6457 C.ar      1 <0>        -0.0406
     19 C13        -1.0170    2.1637    0.1730 C.3       1 <0>        -0.0270
     20 C14        -1.8565    0.9300    0.3992 C.ar      1 <0>        -0.0404
     21 C15        -2.1502   -1.4293    0.8435 C.ar      1 <0>        -0.0545
     22 C16        -3.2533    1.0631    0.3063 C.ar      1 <0>        -0.0135
     23 C17        -3.5363   -1.2814    0.7566 C.ar      1 <0>        -0.0167
     24 C18        -4.0881   -0.0364    0.4837 C.ar      1 <0>         0.1591
     25 H1          2.6130    0.4542    1.4140 H         1 <0>         0.0313
     26 H2          0.7839    0.6203   -1.0135 H         1 <0>         0.0310
     27 H3          0.4197   -0.3905    1.8674 H         1 <0>         0.0352
     28 H4          2.6296   -1.9743    1.5147 H         1 <0>         0.0275
     29 H5          2.6528   -2.9480    0.0594 H         1 <0>         0.0275
     30 H6          3.4075    2.4746    0.3877 H         1 <0>         0.0272
     31 H7          3.3105    1.7765   -1.2341 H         1 <0>         0.0272
     32 H8          0.4582   -2.1248   -0.6394 H         1 <0>         0.0271
     33 H9          0.3804   -2.6619    1.0282 H         1 <0>         0.0271
     34 H10         1.0179    2.8439    0.1653 H         1 <0>         0.0271
     35 H11         0.5413    2.0560    1.6679 H         1 <0>         0.0271
     36 H12         5.2234    1.0755    1.0349 H         1 <0>         0.0342
     37 H13         5.5422    1.1249   -0.7365 H         1 <0>         0.0342
     38 H14         1.7870   -0.9950   -2.1267 H         1 <0>         0.0239
     39 H15         3.3424   -0.1975   -2.3684 H         1 <0>         0.0239
     40 H16         3.2780   -1.9357   -2.1413 H         1 <0>         0.0239
     41 H17        -1.0677    2.4126   -0.8950 H         1 <0>         0.0313
     42 H18        -1.4421    3.0091    0.7277 H         1 <0>         0.0313
     43 H19        -1.7643   -2.4170    1.0769 H         1 <0>         0.0622
     44 H20        -3.6898    2.0376    0.0966 H         1 <0>         0.0658
     45 H21        -4.1770   -2.1457    0.9101 H         1 <0>         0.0655
     46 H22        -8.1203   -0.1036    0.0276 H         1 <0>         0.2479
@<TRIPOS>BOND
     1    1    3 1
     2    1    4 1
     3    1    5 2
     4    1    6 2
     5    2   15 2
     6    3   24 1
     7    4   46 1
     8    7    8 1
     9    7    9 1
    10    7   12 1
    11    7   25 1
    12    8   11 1
    13    8   15 1
    14    8   17 1
    15    9   10 1
    16    9   14 1
    17    9   26 1
    18   10   13 1
    19   10   18 1
    20   10   27 1
    21   11   13 1
    22   11   28 1
    23   11   29 1
    24   12   16 1
    25   12   30 1
    26   12   31 1
    27   13   32 1
    28   13   33 1
    29   14   19 1
    30   14   34 1
    31   14   35 1
    32   15   16 1
    33   16   36 1
    34   16   37 1
    35   17   38 1
    36   17   39 1
    37   17   40 1
    38   18   20 ar
    39   18   21 ar
    40   19   20 1
    41   19   41 1
    42   19   42 1
    43   20   22 ar
    44   21   23 ar
    45   21   43 1
    46   22   24 ar
    47   22   44 1
    48   23   24 ar
    49   23   45 1
