@<TRIPOS>MOLECULE
DB04920
   53    54     0     0     0
SMALL
USER_CHARGES

@<TRIPOS>ATOM
      1 Cl1         0.4755   -2.1537    1.6600 Cl        1 <0>        -0.0817
      2 Cl2         2.5487   -3.3868   -0.4626 Cl        1 <0>        -0.0820
      3 O1          0.6145    2.6046    0.2964 O.3       1 <0>        -0.4240
      4 O2         -3.1196   -2.3264    1.5037 O.3       1 <0>        -0.4646
      5 O3          0.2990    1.5292    2.3225 O.2       1 <0>        -0.2451
      6 O4         -3.6764   -2.6358   -0.7219 O.2       1 <0>        -0.2452
      7 O5          2.8254    2.1454    1.1193 O.3       1 <0>        -0.4273
      8 O6          2.8296    1.2887   -1.0229 O.2       1 <0>        -0.2508
      9 N1         -3.4439    1.7340   -0.3432 N.pl3     1 <0>        -0.3207
     10 C1         -1.5059   -0.1514    0.5037 C.3       1 <0>         0.0520
     11 C2         -1.2940    1.3652    0.5755 C.2       1 <0>         0.0653
     12 C3         -2.9280   -0.5358    0.0830 C.2       1 <0>         0.0652
     13 C4         -0.5099   -0.7632   -0.4393 C.ar      1 <0>        -0.0154
     14 C5         -2.2442    2.2265    0.1458 C.2       1 <0>         0.0157
     15 C6         -3.8098    0.3976   -0.3404 C.2       1 <0>         0.0157
     16 C7         -0.0395    1.8266    1.1920 C.2       1 <0>         0.3402
     17 C8         -2.1221    3.7264    0.1369 C.3       1 <0>        -0.0260
     18 C9         -5.2082    0.1219   -0.8231 C.3       1 <0>        -0.0260
     19 C10        -3.2917   -1.9563    0.2119 C.2       1 <0>         0.3373
     20 C11         0.4401   -1.6907   -0.0115 C.ar      1 <0>         0.0633
     21 C12        -0.5547   -0.3782   -1.7792 C.ar      1 <0>        -0.0562
     22 C13         1.3457   -2.2328   -0.9236 C.ar      1 <0>         0.0595
     23 C14         0.3507   -0.9200   -2.6911 C.ar      1 <0>        -0.0600
     24 C15         1.3009   -1.8474   -2.2635 C.ar      1 <0>        -0.0420
     25 C16         1.8695    3.1487    0.7381 C.3       1 <0>         0.2391
     26 C17        -3.4344   -3.6930    1.7906 C.3       1 <0>         0.0820
     27 C18         4.1919    0.2819    0.7199 C.3       1 <0>         0.0448
     28 C19         5.1569   -0.2859   -0.3186 C.3       1 <0>        -0.0458
     29 C20         3.2176    1.2811    0.1373 C.2       1 <0>         0.3098
     30 C21         6.0907   -1.3373    0.2650 C.3       1 <0>        -0.0648
     31 H1         -1.3968   -0.4937    1.5370 H         1 <0>         0.0452
     32 H2         -4.1279    2.4061   -0.6725 H         1 <0>         0.1516
     33 H3         -3.0626    4.1876    0.4599 H         1 <0>         0.0290
     34 H4         -1.3513    4.0999    0.8163 H         1 <0>         0.0290
     35 H5         -1.8986    4.0808   -0.8745 H         1 <0>         0.0290
     36 H6         -5.2829    0.3296   -1.8957 H         1 <0>         0.0290
     37 H7         -5.5320   -0.9081   -0.6556 H         1 <0>         0.0290
     38 H8         -5.9226    0.7664   -0.2987 H         1 <0>         0.0290
     39 H9         -1.2810    0.3421   -2.1451 H         1 <0>         0.0621
     40 H10         0.3166   -0.6194   -3.7342 H         1 <0>         0.0618
     41 H11         1.9993   -2.2584   -2.9880 H         1 <0>         0.0633
     42 H12         1.6957    3.8061    1.5970 H         1 <0>         0.1168
     43 H13         2.2858    3.7610   -0.0694 H         1 <0>         0.1168
     44 H14        -3.2588   -3.8655    2.8557 H         1 <0>         0.0661
     45 H15        -2.7845   -4.3593    1.2152 H         1 <0>         0.0661
     46 H16        -4.4872   -3.8939    1.5704 H         1 <0>         0.0661
     47 H17         3.6070   -0.5209    1.1817 H         1 <0>         0.0377
     48 H18         4.7750    0.7759    1.5062 H         1 <0>         0.0377
     49 H19         4.5925   -0.7333   -1.1454 H         1 <0>         0.0268
     50 H20         5.7506    0.5279   -0.7521 H         1 <0>         0.0268
     51 H21         5.5247   -2.1791    0.6757 H         1 <0>         0.0230
     52 H22         6.7603   -1.7222   -0.5103 H         1 <0>         0.0230
     53 H23         6.7043   -0.9126    1.0656 H         1 <0>         0.0230
@<TRIPOS>BOND
     1    1   20 1
     2    2   22 1
     3    3   16 1
     4    3   25 1
     5    4   19 1
     6    4   26 1
     7    5   16 2
     8    6   19 2
     9    7   25 1
    10    7   29 1
    11    8   29 2
    12    9   14 1
    13    9   15 1
    14    9   32 1
    15   10   11 1
    16   10   12 1
    17   10   13 1
    18   10   31 1
    19   11   14 2
    20   11   16 1
    21   12   15 2
    22   12   19 1
    23   13   20 ar
    24   13   21 ar
    25   14   17 1
    26   15   18 1
    27   17   33 1
    28   17   34 1
    29   17   35 1
    30   18   36 1
    31   18   37 1
    32   18   38 1
    33   20   22 ar
    34   21   23 ar
    35   21   39 1
    36   22   24 ar
    37   23   24 ar
    38   23   40 1
    39   24   41 1
    40   25   42 1
    41   25   43 1
    42   26   44 1
    43   26   45 1
    44   26   46 1
    45   27   28 1
    46   27   29 1
    47   27   47 1
    48   27   48 1
    49   28   30 1
    50   28   49 1
    51   28   50 1
    52   30   51 1
    53   30   52 1
    54   30   53 1
