@<TRIPOS>MOLECULE
DB04398
   12    11     0     0     0
SMALL
USER_CHARGES

@<TRIPOS>ATOM
      1 O1          0.7876    1.5868    0.2514 O.3       1 <0>        -0.3809
      2 O2         -1.6958   -0.9275   -0.4013 O.3       1 <0>        -0.4788
      3 O3         -1.7269    0.9223    0.9138 O.2       1 <0>        -0.2481
      4 C1          0.3003    0.3772   -0.3105 C.3       1 <0>         0.1486
      5 C2          1.1956   -0.7543    0.1630 C.3       1 <0>        -0.0285
      6 C3         -1.1285    0.1766    0.1493 C.2       1 <0>         0.3333
      7 H1          0.3220    0.4711   -1.4009 H         1 <0>         0.0707
      8 H2          1.1659   -0.8470    1.2547 H         1 <0>         0.0260
      9 H3          2.2380   -0.5606   -0.1116 H         1 <0>         0.0260
     10 H4          0.8933   -1.7139   -0.2675 H         1 <0>         0.0260
     11 H5          0.2725    2.3165   -0.1338 H         1 <0>         0.2105
     12 H6         -2.6239   -1.0473   -0.1066 H         1 <0>         0.2951
@<TRIPOS>BOND
     1    1    4 1
     2    1   11 1
     3    2    6 1
     4    2   12 1
     5    3    6 2
     6    4    5 1
     7    4    6 1
     8    4    7 1
     9    5    8 1
    10    5    9 1
    11    5   10 1
