@<TRIPOS>MOLECULE
DB04575
   59    63     0     0     0
SMALL
USER_CHARGES

@<TRIPOS>ATOM
      1 O1          6.1641    1.1158    1.2827 O.3       1 <0>        -0.3760
      2 O2         -4.5864   -0.1617   -0.5868 O.3       1 <0>        -0.4888
      3 C1          3.8555    0.5876    0.5545 C.3       1 <0>         0.0111
      4 C2          3.3268   -0.6146   -0.2603 C.3       1 <0>        -0.0286
      5 C3          1.8163   -0.8081   -0.1076 C.3       1 <0>        -0.0305
      6 C4          5.3867    0.4514    0.2960 C.3       1 <0>         0.1317
      7 C5          1.0885    0.4678   -0.6280 C.3       1 <0>        -0.0125
      8 C6          3.1657    1.8601    0.0315 C.3       1 <0>        -0.0433
      9 C7          4.2576   -1.7555    0.1425 C.3       1 <0>        -0.0458
     10 C8          1.6289    1.7447    0.0683 C.3       1 <0>        -0.0453
     11 C9          5.6206   -1.0783    0.3965 C.3       1 <0>        -0.0118
     12 C10         1.3008   -2.0241   -0.8810 C.3       1 <0>        -0.0454
     13 C11         3.5781    0.4775    2.0833 C.3       1 <0>        -0.0558
     14 C12        -0.4279    0.2987   -0.5806 C.ar      1 <0>        -0.0406
     15 C13        -0.1754   -2.2485   -0.5686 C.3       1 <0>        -0.0270
     16 C14        -1.0069   -0.9893   -0.5950 C.ar      1 <0>        -0.0405
     17 C15         5.8126    0.9357   -1.0319 C.1       1 <0>        -0.0704
     18 C16        -1.2858    1.4126   -0.6115 C.ar      1 <0>        -0.0546
     19 C17        -2.4060   -1.1289   -0.5844 C.ar      1 <0>        -0.0165
     20 C18        -2.6740    1.2595   -0.6109 C.ar      1 <0>        -0.0196
     21 C19        -3.2347   -0.0107   -0.5919 C.ar      1 <0>         0.1212
     22 C20         6.1589    1.3291   -2.1119 C.1       1 <0>        -0.1163
     23 C21        -5.2982    0.4109    0.5033 C.3       1 <0>         0.1002
     24 C22        -6.1131   -0.6691    1.1980 C.3       1 <0>        -0.0158
     25 C23        -6.3633    1.3706   -0.0050 C.3       1 <0>        -0.0158
     26 C24        -7.3524   -0.8384    0.3203 C.3       1 <0>        -0.0496
     27 C25        -7.4948    0.4598   -0.4746 C.3       1 <0>        -0.0496
     28 H1          3.5096   -0.4304   -1.3310 H         1 <0>         0.0310
     29 H2          1.5718   -0.9658    0.9507 H         1 <0>         0.0310
     30 H3          1.3288    0.5742   -1.6973 H         1 <0>         0.0352
     31 H4          3.4497    2.0583   -1.0086 H         1 <0>         0.0272
     32 H5          3.4832    2.7360    0.6099 H         1 <0>         0.0272
     33 H6          4.3344   -2.5129   -0.6445 H         1 <0>         0.0269
     34 H7          3.9080   -2.2581    1.0513 H         1 <0>         0.0269
     35 H8          1.2714    1.7846    1.1042 H         1 <0>         0.0271
     36 H9          1.2311    2.6404   -0.4229 H         1 <0>         0.0271
     37 H10         5.9927   -1.3640    1.3882 H         1 <0>         0.0303
     38 H11         6.3643   -1.4343   -0.3268 H         1 <0>         0.0303
     39 H12         1.8588   -2.9294   -0.6172 H         1 <0>         0.0271
     40 H13         1.4356   -1.8690   -1.9593 H         1 <0>         0.0271
     41 H14         2.5135    0.4140    2.3212 H         1 <0>         0.0236
     42 H15         4.0540   -0.3988    2.5344 H         1 <0>         0.0236
     43 H16         3.9641    1.3596    2.6076 H         1 <0>         0.0236
     44 H17        -0.2656   -2.6896    0.4325 H         1 <0>         0.0313
     45 H18        -0.5782   -2.9746   -1.2851 H         1 <0>         0.0313
     46 H19         7.0926    0.8499    1.1670 H         1 <0>         0.2114
     47 H20        -0.8928    2.4242   -0.6468 H         1 <0>         0.0622
     48 H21        -2.8505   -2.1220   -0.5724 H         1 <0>         0.0657
     49 H22        -3.3029    2.1454   -0.6378 H         1 <0>         0.0654
     50 H23         6.4653    1.6781   -3.0701 H         1 <0>         0.1229
     51 H24        -4.6281    0.9017    1.2198 H         1 <0>         0.0733
     52 H25        -6.4186   -0.3282    2.1944 H         1 <0>         0.0301
     53 H26        -5.5709   -1.6138    1.3042 H         1 <0>         0.0301
     54 H27        -6.0097    2.0124   -0.8175 H         1 <0>         0.0301
     55 H28        -6.7211    2.0061    0.8136 H         1 <0>         0.0301
     56 H29        -8.2407   -1.0429    0.9266 H         1 <0>         0.0266
     57 H30        -7.2238   -1.6829   -0.3665 H         1 <0>         0.0266
     58 H31        -7.3950    0.2503   -1.5462 H         1 <0>         0.0266
     59 H32        -8.4730    0.9269   -0.3224 H         1 <0>         0.0266
@<TRIPOS>BOND
     1    1    6 1
     2    1   46 1
     3    2   21 1
     4    2   23 1
     5    3    4 1
     6    3    6 1
     7    3    8 1
     8    3   13 1
     9    4    5 1
    10    4    9 1
    11    4   28 1
    12    5    7 1
    13    5   12 1
    14    5   29 1
    15    6   11 1
    16    6   17 1
    17    7   10 1
    18    7   14 1
    19    7   30 1
    20    8   10 1
    21    8   31 1
    22    8   32 1
    23    9   11 1
    24    9   33 1
    25    9   34 1
    26   10   35 1
    27   10   36 1
    28   11   37 1
    29   11   38 1
    30   12   15 1
    31   12   39 1
    32   12   40 1
    33   13   41 1
    34   13   42 1
    35   13   43 1
    36   14   16 ar
    37   14   18 ar
    38   15   16 1
    39   15   44 1
    40   15   45 1
    41   16   19 ar
    42   17   22 3
    43   18   20 ar
    44   18   47 1
    45   19   21 ar
    46   19   48 1
    47   20   21 ar
    48   20   49 1
    49   22   50 1
    50   23   24 1
    51   23   25 1
    52   23   51 1
    53   24   26 1
    54   24   52 1
    55   24   53 1
    56   25   27 1
    57   25   54 1
    58   25   55 1
    59   26   27 1
    60   26   56 1
    61   26   57 1
    62   27   58 1
    63   27   59 1
