@<TRIPOS>MOLECULE
DB04826
   42    44     0     0     0
SMALL
USER_CHARGES

@<TRIPOS>ATOM
      1 S1         -4.2711    1.1800   -1.0791 S.3       1 <0>        -0.1000
      2 N1          3.4465    0.1325    0.2753 N.3       1 <0>        -0.3052
      3 N2         -0.6569   -0.0137   -0.6922 N.pl3     1 <0>        -0.3219
      4 C1          0.6224    0.5657   -0.3481 C.3       1 <0>         0.0262
      5 C2          1.0847    0.0298    1.0061 C.3       1 <0>        -0.0215
      6 C3          1.6539    0.2357   -1.4265 C.3       1 <0>        -0.0215
      7 C4          2.5004    0.5070    1.3358 C.3       1 <0>         0.0003
      8 C5          3.0507    0.7077   -1.0179 C.3       1 <0>         0.0003
      9 C6         -1.5769    0.7707   -1.5129 C.3       1 <0>         0.0437
     10 C7         -1.0097   -1.2990   -0.2660 C.ar      1 <0>         0.0302
     11 C8          4.8028    0.5515    0.6281 C.3       1 <0>        -0.0128
     12 C9         -2.6380    1.4954   -0.7290 C.2       1 <0>         0.0070
     13 C10        -1.6697   -1.4841    0.9554 C.ar      1 <0>        -0.0406
     14 C11        -0.7079   -2.4154   -1.0557 C.ar      1 <0>        -0.0406
     15 C12        -2.4591    2.4091    0.2647 C.2       1 <0>        -0.0500
     16 C13        -2.0222   -2.7651    1.3800 C.ar      1 <0>        -0.0600
     17 C14        -1.0606   -3.6964   -0.6312 C.ar      1 <0>        -0.0600
     18 C15        -1.7178   -3.8713    0.5869 C.ar      1 <0>        -0.0616
     19 C16        -3.7081    2.8759    0.7667 C.2       1 <0>        -0.0544
     20 C17        -4.7759    2.2889    0.1241 C.2       1 <0>        -0.0240
     21 H1          0.5352    1.6575   -0.2728 H         1 <0>         0.0500
     22 H2          1.1145   -1.0665    1.0331 H         1 <0>         0.0295
     23 H3          0.4060    0.3606    1.8018 H         1 <0>         0.0295
     24 H4          1.3732    0.7059   -2.3768 H         1 <0>         0.0295
     25 H5          1.6903   -0.8443   -1.6156 H         1 <0>         0.0295
     26 H6          2.4956    1.5944    1.4887 H         1 <0>         0.0427
     27 H7          2.8047    0.0473    2.2841 H         1 <0>         0.0427
     28 H8          3.7579    0.3942   -1.7955 H         1 <0>         0.0427
     29 H9          3.0724    1.8050   -0.9813 H         1 <0>         0.0427
     30 H10        -2.0234    0.1185   -2.2753 H         1 <0>         0.0518
     31 H11        -1.0151    1.5237   -2.0826 H         1 <0>         0.0518
     32 H12         5.1182    0.0833    1.5671 H         1 <0>         0.0391
     33 H13         4.8846    1.6387    0.7399 H         1 <0>         0.0391
     34 H14         5.5167    0.2287   -0.1379 H         1 <0>         0.0391
     35 H15        -1.9187   -0.6333    1.5848 H         1 <0>         0.0636
     36 H16        -0.2045   -2.2962   -2.0117 H         1 <0>         0.0636
     37 H17        -1.4956    2.7415    0.6281 H         1 <0>         0.0626
     38 H18        -2.5349   -2.9011    2.3278 H         1 <0>         0.0618
     39 H19        -0.8255   -4.5576   -1.2497 H         1 <0>         0.0618
     40 H20        -1.9930   -4.8686    0.9171 H         1 <0>         0.0618
     41 H21        -3.8181    3.6053    1.5587 H         1 <0>         0.0623
     42 H22        -5.8283    2.4582    0.3036 H         1 <0>         0.0693
@<TRIPOS>BOND
     1    1   12 1
     2    1   20 1
     3    2    7 1
     4    2    8 1
     5    2   11 1
     6    3    4 1
     7    3    9 1
     8    3   10 1
     9    4    5 1
    10    4    6 1
    11    4   21 1
    12    5    7 1
    13    5   22 1
    14    5   23 1
    15    6    8 1
    16    6   24 1
    17    6   25 1
    18    7   26 1
    19    7   27 1
    20    8   28 1
    21    8   29 1
    22    9   12 1
    23    9   30 1
    24    9   31 1
    25   10   13 ar
    26   10   14 ar
    27   11   32 1
    28   11   33 1
    29   11   34 1
    30   12   15 2
    31   13   16 ar
    32   13   35 1
    33   14   17 ar
    34   14   36 1
    35   15   19 1
    36   15   37 1
    37   16   18 ar
    38   16   38 1
    39   17   18 ar
    40   17   39 1
    41   18   40 1
    42   19   20 2
    43   19   41 1
    44   20   42 1
