@<TRIPOS>MOLECULE
DB04160
   13    12     0     0     0
SMALL
USER_CHARGES

@<TRIPOS>ATOM
      1 P1         -1.4458    0.0233   -0.2709 P.3       1 <0>         0.4808
      2 P2          1.4456    0.0228    0.2711 P.3       1 <0>         0.4808
      3 O1          0.0001    0.6920    0.0004 O.3       1 <0>        -0.1863
      4 O2         -2.4418    1.2960   -0.2881 O.3       1 <0>        -0.3023
      5 O3         -1.7886   -0.7070    1.1294 O.3       1 <0>        -0.3023
      6 O4          2.4416    1.2955    0.2897 O.3       1 <0>        -0.3023
      7 O5          1.7887   -0.7056   -1.1304 O.3       1 <0>        -0.3023
      8 O6         -1.5096   -0.8555   -1.4851 O.2       1 <0>        -0.2271
      9 O7          1.5093   -0.8571    1.4844 O.2       1 <0>        -0.2271
     10 H1         -3.3839    1.1587   -0.5244 H         1 <0>         0.2220
     11 H2         -2.5955   -1.2615    1.1910 H         1 <0>         0.2220
     12 H3          3.3838    1.1579    0.5256 H         1 <0>         0.2220
     13 H4          2.5959   -1.2595   -1.1927 H         1 <0>         0.2220
@<TRIPOS>BOND
     1    1    3 1
     2    1    4 1
     3    1    5 1
     4    1    8 2
     5    2    3 1
     6    2    6 1
     7    2    7 1
     8    2    9 2
     9    4   10 1
    10    5   11 1
    11    6   12 1
    12    7   13 1
