@<TRIPOS>MOLECULE
DB04839
   58    62     0     0     0
SMALL
USER_CHARGES

@<TRIPOS>ATOM
      1 Cl1         3.4236   -3.4855    1.8932 Cl        1 <0>        -0.0836
      2 O1         -3.0361    0.4931    1.0803 O.3       1 <0>        -0.4500
      3 O2          6.6139    0.6335    1.5977 O.2       1 <0>        -0.2924
      4 O3         -4.9776   -0.4588   -1.3600 O.2       1 <0>        -0.2934
      5 O4         -5.1816   -0.2885    1.4308 O.2       1 <0>        -0.2511
      6 C1          2.9415    0.0079   -0.3509 C.3       1 <0>         0.0013
      7 C2          1.3919    0.1112   -0.1228 C.3       1 <0>        -0.0247
      8 C3          3.5476    1.4086   -0.3119 C.3       1 <0>        -0.0208
      9 C4         -1.5328   -0.1517   -0.7482 C.3       1 <0>         0.0182
     10 C5         -0.7614   -1.1175    0.1910 C.3       1 <0>        -0.0248
     11 C6          0.7077   -1.2852   -0.2209 C.3       1 <0>        -0.0141
     12 C7          4.8555    1.6207    0.3905 C.3       1 <0>         0.0255
     13 C8          3.5964    2.2431    0.9427 C.3       1 <0>        -0.0386
     14 C9          0.6511    1.1498   -1.0030 C.3       1 <0>        -0.0482
     15 C10        -0.8537    1.2275   -0.6741 C.3       1 <0>        -0.0430
     16 C11        -2.9465   -0.2648   -0.1229 C.3       1 <0>         0.1759
     17 C12        -1.6672   -2.3456    0.2476 C.3       1 <0>        -0.0450
     18 C13         3.5236   -0.9601    0.7144 C.2       1 <0>        -0.0196
     19 C14        -3.0971   -1.7679    0.2025 C.3       1 <0>        -0.0049
     20 C15         3.2863   -0.5798   -1.7464 C.3       1 <0>        -0.0549
     21 C16         1.4524   -2.3092    0.5917 C.2       1 <0>        -0.0617
     22 C17        -1.5660   -0.6246   -2.2297 C.3       1 <0>        -0.0552
     23 C18         5.4856    0.5163    1.1358 C.2       1 <0>         0.1598
     24 C19         2.7200   -2.1567    1.0117 C.2       1 <0>         0.0412
     25 C20         4.6874   -0.7132    1.3473 C.2       1 <0>        -0.0138
     26 C21        -4.0577    0.2633   -0.9788 C.2       1 <0>         0.1741
     27 C22        -3.9942    1.7210   -1.3468 C.3       1 <0>        -0.0020
     28 C23        -4.2163    0.3874    1.7603 C.2       1 <0>         0.3049
     29 C24        -4.1665    1.2326    2.9970 C.3       1 <0>         0.0333
     30 H1          1.2580    0.4681    0.9125 H         1 <0>         0.0315
     31 H2          3.3958    1.9553   -1.2381 H         1 <0>         0.0316
     32 H3         -0.7581   -0.6956    1.2098 H         1 <0>         0.0313
     33 H4          0.7432   -1.6475   -1.2540 H         1 <0>         0.0349
     34 H5          5.5533    2.2918   -0.1025 H         1 <0>         0.0384
     35 H6          3.1693    1.8442    1.8543 H         1 <0>         0.0275
     36 H7          3.4784    3.3152    0.8363 H         1 <0>         0.0275
     37 H8          0.7896    0.9201   -2.0642 H         1 <0>         0.0269
     38 H9          1.0717    2.1491   -0.8453 H         1 <0>         0.0269
     39 H10        -0.9594    1.6561    0.3301 H         1 <0>         0.0272
     40 H11        -1.3144    1.9382   -1.3662 H         1 <0>         0.0272
     41 H12        -1.5062   -2.9289    1.1602 H         1 <0>         0.0270
     42 H13        -1.4950   -3.0128   -0.6046 H         1 <0>         0.0270
     43 H14        -3.6620   -2.3183   -0.5584 H         1 <0>         0.0308
     44 H15        -3.5657   -1.9816    1.1671 H         1 <0>         0.0308
     45 H16         4.3720   -0.5838   -1.9075 H         1 <0>         0.0238
     46 H17         2.9416   -1.6105   -1.8760 H         1 <0>         0.0238
     47 H18         2.8510    0.0193   -2.5534 H         1 <0>         0.0238
     48 H19         0.9303   -3.2406    0.7990 H         1 <0>         0.0589
     49 H20        -0.5684   -0.7515   -2.6573 H         1 <0>         0.0237
     50 H21        -2.0860   -1.5796   -2.3545 H         1 <0>         0.0237
     51 H22        -2.0785    0.1029   -2.8668 H         1 <0>         0.0237
     52 H23         5.1111   -1.3909    2.0812 H         1 <0>         0.0656
     53 H24        -3.5831    2.3279   -0.5376 H         1 <0>         0.0307
     54 H25        -3.4123    1.8580   -2.2594 H         1 <0>         0.0307
     55 H26        -5.0127    2.0778   -1.5309 H         1 <0>         0.0307
     56 H27        -4.0181    2.2801    2.7230 H         1 <0>         0.0342
     57 H28        -3.3608    0.8867    3.6492 H         1 <0>         0.0342
     58 H29        -5.1141    1.1438    3.5356 H         1 <0>         0.0342
@<TRIPOS>BOND
     1    1   24 1
     2    2   16 1
     3    2   28 1
     4    3   23 2
     5    4   26 2
     6    5   28 2
     7    6    7 1
     8    6    8 1
     9    6   18 1
    10    6   20 1
    11    7   11 1
    12    7   14 1
    13    7   30 1
    14    8   12 1
    15    8   13 1
    16    8   31 1
    17    9   10 1
    18    9   15 1
    19    9   16 1
    20    9   22 1
    21   10   11 1
    22   10   17 1
    23   10   32 1
    24   11   21 1
    25   11   33 1
    26   12   13 1
    27   12   23 1
    28   12   34 1
    29   13   35 1
    30   13   36 1
    31   14   15 1
    32   14   37 1
    33   14   38 1
    34   15   39 1
    35   15   40 1
    36   16   19 1
    37   16   26 1
    38   17   19 1
    39   17   41 1
    40   17   42 1
    41   18   24 1
    42   18   25 2
    43   19   43 1
    44   19   44 1
    45   20   45 1
    46   20   46 1
    47   20   47 1
    48   21   24 2
    49   21   48 1
    50   22   49 1
    51   22   50 1
    52   22   51 1
    53   23   25 1
    54   25   52 1
    55   26   27 1
    56   27   53 1
    57   27   54 1
    58   27   55 1
    59   28   29 1
    60   29   56 1
    61   29   57 1
    62   29   58 1
