@<TRIPOS>MOLECULE
DB04938
   50    52     0     0     0
SMALL
USER_CHARGES

@<TRIPOS>ATOM
      1 Cl1         5.4407   -2.5099   -0.4025 Cl        1 <0>        -0.1251
      2 O1         -3.9809    1.8144   -0.5902 O.3       1 <0>        -0.4897
      3 O2         -6.2276    0.2383   -1.0573 O.3       1 <0>        -0.3917
      4 C1          1.6729   -1.0187    0.2727 C.2       1 <0>        -0.0309
      5 C2          1.3755    0.3120    0.0936 C.2       1 <0>        -0.0070
      6 C3          3.0739   -1.5561    0.5315 C.3       1 <0>        -0.0131
      7 C4         -0.0584    0.7134   -0.0896 C.ar      1 <0>        -0.0168
      8 C5          0.6296   -2.0745    0.2831 C.ar      1 <0>        -0.0212
      9 C6          2.4299    1.3139    0.0847 C.ar      1 <0>        -0.0170
     10 C7         -0.7964    1.0208    1.0261 C.ar      1 <0>        -0.0506
     11 C8         -0.5658    0.7556   -1.3641 C.ar      1 <0>        -0.0506
     12 C9          3.8057   -1.9044   -0.7621 C.3       1 <0>         0.0266
     13 C10         0.2832   -2.6826   -0.9066 C.ar      1 <0>        -0.0543
     14 C11         0.0379   -2.4167    1.4821 C.ar      1 <0>        -0.0543
     15 C12         2.8198    1.9267    1.2755 C.ar      1 <0>        -0.0540
     16 C13         3.0516    1.6616   -1.1145 C.ar      1 <0>        -0.0540
     17 C14        -2.1295    1.3947    0.8560 C.ar      1 <0>        -0.0194
     18 C15        -1.8987    1.1295   -1.5342 C.ar      1 <0>        -0.0194
     19 C16        -2.6806    1.4491   -0.4240 C.ar      1 <0>         0.1206
     20 C17        -0.6968   -3.6753   -0.8968 C.ar      1 <0>        -0.0612
     21 C18        -0.9420   -3.4095    1.4920 C.ar      1 <0>        -0.0612
     22 C19         3.8313    2.8871    1.2673 C.ar      1 <0>        -0.0612
     23 C20         4.0632    2.6220   -1.1229 C.ar      1 <0>        -0.0612
     24 C21        -1.3094   -4.0388    0.3024 C.ar      1 <0>        -0.0617
     25 C22         4.4530    3.2347    0.0681 C.ar      1 <0>        -0.0617
     26 C23        -4.8841    1.5013    0.4692 C.3       1 <0>         0.1126
     27 C24        -6.2716    1.2962   -0.1077 C.3       1 <0>         0.0783
     28 H1          3.0199   -2.4440    1.1765 H         1 <0>         0.0325
     29 H2          3.6624   -0.8314    1.1065 H         1 <0>         0.0325
     30 H3         -0.3738    0.9867    2.0259 H         1 <0>         0.0625
     31 H4          0.0351    0.5083   -2.2342 H         1 <0>         0.0625
     32 H5          3.9172   -1.0397   -1.4199 H         1 <0>         0.0433
     33 H6          3.2867   -2.6917   -1.3163 H         1 <0>         0.0433
     34 H7          0.7513   -2.4066   -1.8472 H         1 <0>         0.0624
     35 H8          0.3174   -1.9342    2.4145 H         1 <0>         0.0624
     36 H9          2.3470    1.6663    2.2195 H         1 <0>         0.0624
     37 H10         2.7589    1.1956   -2.0524 H         1 <0>         0.0624
     38 H11        -2.6950    1.6614    1.7439 H         1 <0>         0.0654
     39 H12        -2.3230    1.1696   -2.5338 H         1 <0>         0.0654
     40 H13        -0.9834   -4.1646   -1.8231 H         1 <0>         0.0618
     41 H14        -1.4191   -3.6924    2.4257 H         1 <0>         0.0618
     42 H15         4.1352    3.3639    2.1946 H         1 <0>         0.0618
     43 H16         4.5472    2.8929   -2.0566 H         1 <0>         0.0618
     44 H17        -2.0726   -4.8113    0.3101 H         1 <0>         0.0618
     45 H18         5.2406    3.9823    0.0616 H         1 <0>         0.0618
     46 H19        -4.8978    2.3233    1.1931 H         1 <0>         0.0720
     47 H20        -4.5941    0.5676    0.9684 H         1 <0>         0.0720
     48 H21        -6.9895    1.0353    0.6747 H         1 <0>         0.0591
     49 H22        -6.6205    2.1950   -0.6258 H         1 <0>         0.0591
     50 H23        -5.5766    0.4827   -1.7372 H         1 <0>         0.2095
@<TRIPOS>BOND
     1    1   12 1
     2    2   19 1
     3    2   26 1
     4    3   27 1
     5    3   50 1
     6    4    5 2
     7    4    6 1
     8    4    8 1
     9    5    7 1
    10    5    9 1
    11    6   12 1
    12    6   28 1
    13    6   29 1
    14    7   10 ar
    15    7   11 ar
    16    8   13 ar
    17    8   14 ar
    18    9   15 ar
    19    9   16 ar
    20   10   17 ar
    21   10   30 1
    22   11   18 ar
    23   11   31 1
    24   12   32 1
    25   12   33 1
    26   13   20 ar
    27   13   34 1
    28   14   21 ar
    29   14   35 1
    30   15   22 ar
    31   15   36 1
    32   16   23 ar
    33   16   37 1
    34   17   19 ar
    35   17   38 1
    36   18   19 ar
    37   18   39 1
    38   20   24 ar
    39   20   40 1
    40   21   24 ar
    41   21   41 1
    42   22   25 ar
    43   22   42 1
    44   23   25 ar
    45   23   43 1
    46   24   44 1
    47   25   45 1
    48   26   27 1
    49   26   46 1
    50   26   47 1
    51   27   48 1
    52   27   49 1
