@<TRIPOS>MOLECULE
DB04868
   61    65     0     0     0
SMALL
USER_CHARGES

@<TRIPOS>ATOM
      1 F1         -4.7996    5.0546   -0.5357 F         1 <0>        -0.1659
      2 F2         -3.0348    5.9414    0.3608 F         1 <0>        -0.1659
      3 F3         -3.0414    5.4416   -1.7556 F         1 <0>        -0.1659
      4 O1          1.1831    3.9940    0.8324 O.2       1 <0>        -0.2699
      5 N1         -4.1644    0.2570    0.5474 N.pl3     1 <0>        -0.3055
      6 N2          0.3450    1.9158    0.1367 N.am      1 <0>        -0.2814
      7 N3          4.4861   -0.9432    0.6397 N.pl3     1 <0>        -0.2834
      8 N4         -6.0852   -0.8418    0.8132 N.2       1 <0>        -0.2406
      9 N5          2.4841   -1.8453   -0.1875 N.ar      1 <0>        -0.2142
     10 N6          4.2391   -3.2767    0.6361 N.ar      1 <0>        -0.2226
     11 N7         -0.9680   -1.3076   -2.3926 N.ar      1 <0>        -0.2626
     12 C1         -3.2906    1.3007    0.3034 C.ar      1 <0>         0.0497
     13 C2         -1.0534    2.1381    0.0970 C.ar      1 <0>         0.0362
     14 C3         -2.9055    3.6263   -0.2260 C.ar      1 <0>         0.0585
     15 C4         -1.9136    1.0814    0.3427 C.ar      1 <0>        -0.0165
     16 C5         -3.7866    2.5732    0.0190 C.ar      1 <0>        -0.0261
     17 C6         -1.5286    3.4070   -0.1870 C.ar      1 <0>        -0.0287
     18 C7          2.7198    2.3004    0.4067 C.ar      1 <0>         0.0388
     19 C8          4.2619    0.4421    0.4822 C.ar      1 <0>         0.0372
     20 C9          5.3250    1.3151    0.2506 C.ar      1 <0>        -0.0292
     21 C10         2.9592    0.9347    0.5602 C.ar      1 <0>        -0.0281
     22 C11         1.3619    2.8147    0.4879 C.2       1 <0>         0.2483
     23 C12        -3.8275   -1.0402    0.8388 C.cat     1 <0>         0.0322
     24 C13         3.7829    3.1733    0.1752 C.ar      1 <0>        -0.0493
     25 C14         5.0855    2.6806    0.0972 C.ar      1 <0>        -0.0564
     26 C15        -3.4352    4.9868   -0.5304 C.3       1 <0>         0.4175
     27 C16        -5.5351    0.3214    0.5445 C.cat     1 <0>         0.1007
     28 C17        -5.0261   -1.6952    0.9976 C.2       1 <0>         0.0563
     29 C18         6.7302    0.8150    0.1622 C.3       1 <0>        -0.0380
     30 C19         3.7001   -2.0739    0.3495 C.ar      1 <0>         0.2200
     31 C20        -5.2534   -3.1119    1.3207 C.3       1 <0>        -0.0209
     32 C21         1.7576   -2.9507   -0.4531 C.ar      1 <0>         0.0775
     33 C22         0.4566   -2.7055   -1.0275 C.ar      1 <0>         0.0186
     34 C23         2.1976   -4.2351   -0.2055 C.ar      1 <0>        -0.0174
     35 C24         3.4588   -4.3383    0.3452 C.ar      1 <0>         0.0332
     36 C25        -0.6046   -3.5751   -0.7991 C.ar      1 <0>        -0.0497
     37 C26         0.2245   -1.5959   -1.8248 C.ar      1 <0>         0.0367
     38 C27        -1.8466   -3.3124   -1.3662 C.ar      1 <0>        -0.0430
     39 C28        -1.9752   -2.1756   -2.1479 C.ar      1 <0>         0.0276
     40 H1         -1.4799    0.1118    0.5629 H         1 <0>         0.0657
     41 H2         -4.8494    2.7838   -0.0206 H         1 <0>         0.0644
     42 H3         -0.8642    4.2352   -0.4122 H         1 <0>         0.0642
     43 H4          0.5879    0.9392    0.0056 H         1 <0>         0.1551
     44 H5          2.1555    0.2668    0.8460 H         1 <0>         0.0644
     45 H6         -2.8161   -1.4095    0.9244 H         1 <0>         0.0831
     46 H7          3.6183    4.2401    0.0475 H         1 <0>         0.0625
     47 H8          5.9020    3.3746   -0.0841 H         1 <0>         0.0621
     48 H9         -6.1104    1.2148    0.3468 H         1 <0>         0.1032
     49 H10         5.4217   -1.1946    0.9417 H         1 <0>         0.1550
     50 H11         7.0586    0.4238    1.1307 H         1 <0>         0.0278
     51 H12         6.8150    0.0298   -0.5965 H         1 <0>         0.0278
     52 H13         7.4271    1.6108   -0.1231 H         1 <0>         0.0278
     53 H14        -4.3111   -3.6394    1.5001 H         1 <0>         0.0293
     54 H15        -5.7704   -3.6123    0.4960 H         1 <0>         0.0293
     55 H16        -5.8702   -3.2051    2.2199 H         1 <0>         0.0293
     56 H17         1.6320   -5.1293   -0.4339 H         1 <0>         0.0654
     57 H18         3.8921   -5.3071    0.5700 H         1 <0>         0.0831
     58 H19        -0.5107   -4.4540   -0.1671 H         1 <0>         0.0625
     59 H20         1.0027   -0.8745   -2.0569 H         1 <0>         0.0836
     60 H21        -2.6899   -3.9718   -1.1957 H         1 <0>         0.0633
     61 H22        -2.9241   -1.9236   -2.6096 H         1 <0>         0.0829
@<TRIPOS>BOND
     1    1   26 1
     2    2   26 1
     3    3   26 1
     4    4   22 2
     5    5   12 1
     6    5   23 1
     7    5   27 2
     8    6   13 1
     9    6   22 am
    10    6   43 1
    11    7   19 1
    12    7   30 1
    13    7   49 1
    14    8   27 1
    15    8   28 2
    16    9   30 ar
    17    9   32 ar
    18   10   30 ar
    19   10   35 ar
    20   11   37 ar
    21   11   39 ar
    22   12   15 ar
    23   12   16 ar
    24   13   15 ar
    25   13   17 ar
    26   14   16 ar
    27   14   17 ar
    28   14   26 1
    29   15   40 1
    30   16   41 1
    31   17   42 1
    32   18   21 ar
    33   18   22 1
    34   18   24 ar
    35   19   20 ar
    36   19   21 ar
    37   20   25 ar
    38   20   29 1
    39   21   44 1
    40   23   28 1
    41   23   45 1
    42   24   25 ar
    43   24   46 1
    44   25   47 1
    45   27   48 1
    46   28   31 1
    47   29   50 1
    48   29   51 1
    49   29   52 1
    50   31   53 1
    51   31   54 1
    52   31   55 1
    53   32   33 1
    54   32   34 ar
    55   33   36 ar
    56   33   37 ar
    57   34   35 ar
    58   34   56 1
    59   35   57 1
    60   36   38 ar
    61   36   58 1
    62   37   59 1
    63   38   39 ar
    64   38   60 1
    65   39   61 1
