@<TRIPOS>MOLECULE
DB04844
   50    52     0     0     0
SMALL
USER_CHARGES

@<TRIPOS>ATOM
      1 O1          1.7998   -2.0000    0.2315 O.2       1 <0>        -0.2970
      2 O2         -3.7908   -2.3094   -0.4643 O.3       1 <0>        -0.4914
      3 O3         -5.1193   -0.3211    0.9479 O.3       1 <0>        -0.4914
      4 N1          0.7546    1.8364   -0.5937 N.3       1 <0>        -0.2940
      5 C1          0.0436    0.7164   -1.2598 C.3       1 <0>         0.0427
      6 C2          2.3116    0.3128    0.6428 C.3       1 <0>         0.0305
      7 C3          1.3075    1.4684    0.7211 C.3       1 <0>         0.0090
      8 C4          1.0172   -0.4629   -1.4361 C.3       1 <0>         0.0259
      9 C5         -0.1226    3.0102   -0.5184 C.3       1 <0>         0.0035
     10 C6         -1.3160    0.4003   -0.6361 C.ar      1 <0>        -0.0230
     11 C7          1.6891   -0.8309   -0.1334 C.2       1 <0>         0.1394
     12 C8          3.6356    0.7202    0.0036 C.3       1 <0>        -0.0400
     13 C9         -1.3956    2.7691    0.2958 C.3       1 <0>        -0.0144
     14 C10        -2.0140    1.4129    0.0585 C.ar      1 <0>        -0.0378
     15 C11         4.6976   -0.3909    0.0341 C.3       1 <0>        -0.0460
     16 C12        -1.9480   -0.8408   -0.8134 C.ar      1 <0>        -0.0114
     17 C13        -3.2849    1.1526    0.5952 C.ar      1 <0>        -0.0128
     18 C14         4.9976   -0.8729    1.4541 C.3       1 <0>        -0.0626
     19 C15         4.2363   -1.5701   -0.8258 C.3       1 <0>        -0.0626
     20 C16        -3.2157   -1.0870   -0.2803 C.ar      1 <0>         0.1618
     21 C17        -3.8823   -0.0931    0.4267 C.ar      1 <0>         0.1618
     22 C18        -3.5345   -3.3021    0.5268 C.3       1 <0>         0.0790
     23 C19        -6.2390   -0.0182    0.1174 C.3       1 <0>         0.0790
     24 H1         -0.1928    1.0493   -2.2816 H         1 <0>         0.0516
     25 H2          2.4727   -0.0273    1.6719 H         1 <0>         0.0390
     26 H3          0.5112    1.1797    1.4185 H         1 <0>         0.0433
     27 H4          1.8076    2.3388    1.1647 H         1 <0>         0.0433
     28 H5          1.7988   -0.1741   -2.1484 H         1 <0>         0.0360
     29 H6          0.5406   -1.3513   -1.8578 H         1 <0>         0.0360
     30 H7         -0.3985    3.3045   -1.5402 H         1 <0>         0.0430
     31 H8          0.4224    3.8699   -0.1092 H         1 <0>         0.0430
     32 H9          3.4906    1.0490   -1.0330 H         1 <0>         0.0275
     33 H10         4.0356    1.5897    0.5419 H         1 <0>         0.0275
     34 H11        -2.1235    3.5517    0.0488 H         1 <0>         0.0326
     35 H12        -1.1685    2.8581    1.3656 H         1 <0>         0.0326
     36 H13         5.6183    0.0223   -0.3971 H         1 <0>         0.0296
     37 H14        -1.4716   -1.6350   -1.3801 H         1 <0>         0.0659
     38 H15        -3.8082    1.9298    1.1480 H         1 <0>         0.0658
     39 H16         5.2472   -0.0296    2.1062 H         1 <0>         0.0232
     40 H17         5.8585   -1.5508    1.4455 H         1 <0>         0.0232
     41 H18         4.1628   -1.4196    1.9028 H         1 <0>         0.0232
     42 H19         3.8488   -2.4187   -0.2620 H         1 <0>         0.0232
     43 H20         5.1440   -1.9937   -1.2819 H         1 <0>         0.0232
     44 H21         3.6238   -1.2993   -1.6858 H         1 <0>         0.0232
     45 H22        -2.4632   -3.5200    0.5831 H         1 <0>         0.0660
     46 H23        -4.0627   -4.2158    0.2413 H         1 <0>         0.0660
     47 H24        -3.9034   -2.9753    1.5042 H         1 <0>         0.0660
     48 H25        -6.2544    1.0476   -0.1314 H         1 <0>         0.0660
     49 H26        -7.1506   -0.2618    0.6697 H         1 <0>         0.0660
     50 H27        -6.2135   -0.6179   -0.7979 H         1 <0>         0.0660
@<TRIPOS>BOND
     1    1   11 2
     2    2   20 1
     3    2   22 1
     4    3   21 1
     5    3   23 1
     6    4    5 1
     7    4    7 1
     8    4    9 1
     9    5    8 1
    10    5   10 1
    11    5   24 1
    12    6    7 1
    13    6   11 1
    14    6   12 1
    15    6   25 1
    16    7   26 1
    17    7   27 1
    18    8   11 1
    19    8   28 1
    20    8   29 1
    21    9   13 1
    22    9   30 1
    23    9   31 1
    24   10   14 ar
    25   10   16 ar
    26   12   15 1
    27   12   32 1
    28   12   33 1
    29   13   14 1
    30   13   34 1
    31   13   35 1
    32   14   17 ar
    33   15   18 1
    34   15   19 1
    35   15   36 1
    36   16   20 ar
    37   16   37 1
    38   17   21 ar
    39   17   38 1
    40   18   39 1
    41   18   40 1
    42   18   41 1
    43   19   42 1
    44   19   43 1
    45   19   44 1
    46   20   21 ar
    47   22   45 1
    48   22   46 1
    49   22   47 1
    50   23   48 1
    51   23   49 1
    52   23   50 1
