@<TRIPOS>MOLECULE
DB04573
   45    48     0     0     0
SMALL
USER_CHARGES

@<TRIPOS>ATOM
      1 O1          4.4497   -1.4702   -0.3216 O.3       1 <0>        -0.3887
      2 O2          4.6182    1.4381    0.9950 O.3       1 <0>        -0.3892
      3 O3         -6.4182    0.0760   -0.3670 O.3       1 <0>        -0.5068
      4 C1          2.0731   -0.7942   -0.1906 C.3       1 <0>        -0.0005
      5 C2          1.4694    0.5371    0.3039 C.3       1 <0>        -0.0274
      6 C3         -0.0012    0.6851   -0.0872 C.3       1 <0>        -0.0304
      7 C4         -0.8133   -0.4697    0.5741 C.3       1 <0>        -0.0125
      8 C5          3.5213   -0.5999    0.3010 C.3       1 <0>         0.0867
      9 C6          1.3137   -1.9414    0.4874 C.3       1 <0>        -0.0444
     10 C7          2.4776    1.5872   -0.1647 C.3       1 <0>        -0.0207
     11 C8          3.8381    0.8704   -0.0491 C.3       1 <0>         0.0819
     12 C9         -0.2031   -1.8554    0.2312 C.3       1 <0>        -0.0454
     13 C10        -0.5945    2.0248    0.3536 C.3       1 <0>        -0.0454
     14 C11         2.0415   -0.9930   -1.7267 C.3       1 <0>        -0.0569
     15 C12        -2.3059   -0.3309    0.2862 C.ar      1 <0>        -0.0406
     16 C13        -2.0131    2.1674   -0.1898 C.3       1 <0>        -0.0270
     17 C14        -2.8605    0.9289   -0.0304 C.ar      1 <0>        -0.0405
     18 C15        -3.1772   -1.4271    0.4142 C.ar      1 <0>        -0.0546
     19 C16        -4.2428    1.0484   -0.2586 C.ar      1 <0>        -0.0167
     20 C17        -4.5497   -1.2926    0.1931 C.ar      1 <0>        -0.0199
     21 C18        -5.0823   -0.0563   -0.1477 C.ar      1 <0>         0.1171
     22 H1          1.5086    0.5516    1.4062 H         1 <0>         0.0311
     23 H2         -0.0974    0.6246   -1.1790 H         1 <0>         0.0310
     24 H3         -0.7233   -0.3559    1.6657 H         1 <0>         0.0352
     25 H4          3.5922   -0.7691    1.3831 H         1 <0>         0.0624
     26 H5          1.4823   -1.9124    1.5719 H         1 <0>         0.0272
     27 H6          1.6910   -2.9122    0.1440 H         1 <0>         0.0272
     28 H7          2.2844    1.8627   -1.2077 H         1 <0>         0.0294
     29 H8          2.4284    2.4980    0.4408 H         1 <0>         0.0294
     30 H9          4.4130    0.9656   -0.9762 H         1 <0>         0.0619
     31 H10        -0.4209   -2.1081   -0.8134 H         1 <0>         0.0271
     32 H11        -0.6746   -2.6370    0.8381 H         1 <0>         0.0271
     33 H12         0.0082    2.8651   -0.0085 H         1 <0>         0.0271
     34 H13        -0.6058    2.0888    1.4494 H         1 <0>         0.0271
     35 H14         1.0263   -0.9937   -2.1320 H         1 <0>         0.0236
     36 H15         2.5972   -0.2164   -2.2613 H         1 <0>         0.0236
     37 H16         2.4914   -1.9549   -1.9993 H         1 <0>         0.0236
     38 H17        -1.9626    2.4039   -1.2604 H         1 <0>         0.0313
     39 H18        -2.4961    3.0150    0.3114 H         1 <0>         0.0313
     40 H19         5.3369   -1.2201   -0.0120 H         1 <0>         0.2099
     41 H20         4.0896    1.4191    1.8111 H         1 <0>         0.2099
     42 H21        -2.8085   -2.4087    0.6963 H         1 <0>         0.0622
     43 H22        -4.6654    2.0153   -0.5240 H         1 <0>         0.0657
     44 H23        -5.1906   -2.1644    0.2954 H         1 <0>         0.0654
     45 H24        -6.8449   -0.7897   -0.2461 H         1 <0>         0.2921
@<TRIPOS>BOND
     1    1    8 1
     2    1   40 1
     3    2   11 1
     4    2   41 1
     5    3   21 1
     6    3   45 1
     7    4    5 1
     8    4    8 1
     9    4    9 1
    10    4   14 1
    11    5    6 1
    12    5   10 1
    13    5   22 1
    14    6    7 1
    15    6   13 1
    16    6   23 1
    17    7   12 1
    18    7   15 1
    19    7   24 1
    20    8   11 1
    21    8   25 1
    22    9   12 1
    23    9   26 1
    24    9   27 1
    25   10   11 1
    26   10   28 1
    27   10   29 1
    28   11   30 1
    29   12   31 1
    30   12   32 1
    31   13   16 1
    32   13   33 1
    33   13   34 1
    34   14   35 1
    35   14   36 1
    36   14   37 1
    37   15   17 ar
    38   15   18 ar
    39   16   17 1
    40   16   38 1
    41   16   39 1
    42   17   19 ar
    43   18   20 ar
    44   18   42 1
    45   19   21 ar
    46   19   43 1
    47   20   21 ar
    48   20   44 1
