@<TRIPOS>MOLECULE
DB04837
   40    41     0     0     0
SMALL
USER_CHARGES

@<TRIPOS>ATOM
      1 Cl1         0.7875    0.1624    2.3531 Cl        1 <0>        -0.0832
      2 O1          0.4886    0.0149   -2.1472 O.3       1 <0>        -0.3792
      3 N1         -3.0671   -1.3573   -0.2735 N.3       1 <0>        -0.3082
      4 C1          0.5582   -0.0757   -0.7113 C.3       1 <0>         0.1184
      5 C2         -0.6379   -0.9904   -0.3024 C.3       1 <0>        -0.0028
      6 C3         -2.0158   -0.4417   -0.7068 C.3       1 <0>         0.0016
      7 C4          0.4087    1.3191   -0.0862 C.ar      1 <0>         0.0066
      8 C5          1.9408   -0.6597   -0.3773 C.ar      1 <0>        -0.0116
      9 C6          0.5027    1.4796    1.2748 C.ar      1 <0>         0.0472
     10 C7          0.1806    2.3656   -0.9496 C.ar      1 <0>        -0.0541
     11 C8          3.0549    0.0246   -0.7947 C.ar      1 <0>        -0.0555
     12 C9          1.9980   -1.8386    0.3228 C.ar      1 <0>        -0.0555
     13 C10        -2.9778   -1.5972    1.1672 C.3       1 <0>        -0.0130
     14 C11        -4.3858   -0.8262   -0.6204 C.3       1 <0>        -0.0130
     15 C12         0.3604    2.7613    1.8060 C.ar      1 <0>        -0.0430
     16 C13         0.0385    3.6475   -0.4185 C.ar      1 <0>        -0.0613
     17 C14         4.3092   -0.5055   -0.4920 C.ar      1 <0>        -0.0614
     18 C15         3.2522   -2.3685    0.6255 C.ar      1 <0>        -0.0614
     19 C16         0.1283    3.8453    0.9594 C.ar      1 <0>        -0.0604
     20 C17         4.4078   -1.7018    0.2182 C.ar      1 <0>        -0.0617
     21 H1         -0.6154   -1.1908    0.7640 H         1 <0>         0.0312
     22 H2         -0.5285   -1.9610   -0.8098 H         1 <0>         0.0312
     23 H3         -2.0558   -0.3317   -1.7971 H         1 <0>         0.0427
     24 H4         -2.1763    0.5513   -0.2702 H         1 <0>         0.0427
     25 H5          0.7431   -0.8468   -2.5199 H         1 <0>         0.2111
     26 H6          0.0995    2.2589   -2.0255 H         1 <0>         0.0622
     27 H7          2.9933    0.9528   -1.3536 H         1 <0>         0.0621
     28 H8          1.1389   -2.4078    0.6533 H         1 <0>         0.0621
     29 H9         -3.8883   -2.0926    1.5278 H         1 <0>         0.0391
     30 H10        -2.8608   -0.6730    1.7453 H         1 <0>         0.0391
     31 H11        -2.1741   -2.2969    1.4172 H         1 <0>         0.0391
     32 H12        -4.4626   -0.6621   -1.7011 H         1 <0>         0.0391
     33 H13        -4.5977    0.1213   -0.1115 H         1 <0>         0.0391
     34 H14        -5.1719   -1.5429   -0.3576 H         1 <0>         0.0391
     35 H15         0.4274    2.9324    2.8775 H         1 <0>         0.0632
     36 H16        -0.1433    4.4919   -1.0770 H         1 <0>         0.0618
     37 H17         5.2089    0.0127   -0.8106 H         1 <0>         0.0618
     38 H18         3.3300   -3.3016    1.1759 H         1 <0>         0.0618
     39 H19         0.0171    4.8434    1.3729 H         1 <0>         0.0618
     40 H20         5.3844   -2.1151    0.4531 H         1 <0>         0.0618
@<TRIPOS>BOND
     1    1    9 1
     2    2    4 1
     3    2   25 1
     4    3    6 1
     5    3   13 1
     6    3   14 1
     7    4    5 1
     8    4    7 1
     9    4    8 1
    10    5    6 1
    11    5   21 1
    12    5   22 1
    13    6   23 1
    14    6   24 1
    15    7    9 ar
    16    7   10 ar
    17    8   11 ar
    18    8   12 ar
    19    9   15 ar
    20   10   16 ar
    21   10   26 1
    22   11   17 ar
    23   11   27 1
    24   12   18 ar
    25   12   28 1
    26   13   29 1
    27   13   30 1
    28   13   31 1
    29   14   32 1
    30   14   33 1
    31   14   34 1
    32   15   19 ar
    33   15   35 1
    34   16   19 ar
    35   16   36 1
    36   17   20 ar
    37   17   37 1
    38   18   20 ar
    39   18   38 1
    40   19   39 1
    41   20   40 1
