@<TRIPOS>MOLECULE
DB04348
   80    83     0     0     0
SMALL
USER_CHARGES

@<TRIPOS>ATOM
      1 S1         -6.9907   -3.1125    0.5774 S.o2      1 <0>         0.0812
      2 O1          0.5741    0.9771    2.0037 O.3       1 <0>        -0.3912
      3 O2          2.0870   -2.5613   -0.7843 O.3       1 <0>        -0.3915
      4 O3          5.5158   -2.8438    2.7798 O.3       1 <0>        -0.3918
      5 O4         -6.3570    1.3786   -0.7531 O.2       1 <0>        -0.2758
      6 O5         -7.6130   -4.1922   -0.4750 O.3       1 <0>        -0.2539
      7 O6         -7.4038   -3.4776    1.9200 O.2       1 <0>        -0.1473
      8 O7         -5.5950   -2.8900    0.2463 O.2       1 <0>        -0.1473
      9 N1         -6.3427   -0.1109    1.0303 N.am      1 <0>        -0.3137
     10 C1          0.2370    1.3592   -0.4070 C.3       1 <0>         0.0001
     11 C2          0.6805   -0.0607   -0.8309 C.3       1 <0>        -0.0276
     12 C3          2.1815   -0.1547   -1.1466 C.3       1 <0>        -0.0081
     13 C4          2.9947    0.2600    0.1258 C.3       1 <0>        -0.0276
     14 C5          4.5506    0.1882   -0.1279 C.3       1 <0>        -0.0257
     15 C6         -1.2852    1.0997   -0.2558 C.3       1 <0>        -0.0304
     16 C7          0.9886    1.7539    0.8804 C.3       1 <0>         0.0614
     17 C8          2.5169    1.6242    0.7072 C.3       1 <0>        -0.0226
     18 C9          4.9299   -1.2514   -0.6108 C.3       1 <0>        -0.0307
     19 C10        -0.3181   -0.4401   -1.9235 C.3       1 <0>        -0.0490
     20 C11         2.5837   -1.5518   -1.6579 C.3       1 <0>         0.0589
     21 C12        -1.6337    0.2267   -1.4833 C.3       1 <0>        -0.0491
     22 C13         4.0980   -1.6999   -1.8293 C.3       1 <0>        -0.0232
     23 C14         5.3819    0.5216    1.1464 C.3       1 <0>        -0.0448
     24 C15         0.5062    2.4396   -1.4903 C.3       1 <0>        -0.0567
     25 C16        -2.1728    2.3298   -0.1322 C.3       1 <0>        -0.0400
     26 C17         4.8711   -2.2997    0.5205 C.3       1 <0>        -0.0234
     27 C18         4.9931    1.2191   -1.2010 C.3       1 <0>        -0.0590
     28 C19         5.2757   -0.5230    2.2490 C.3       1 <0>        -0.0263
     29 C20         5.6978   -1.8928    1.7361 C.3       1 <0>         0.0555
     30 C21        -3.6484    2.0372   -0.4722 C.3       1 <0>        -0.0419
     31 C22        -2.0826    2.9009    1.2877 C.3       1 <0>        -0.0621
     32 C23        -4.2995    1.0273    0.4735 C.3       1 <0>         0.0242
     33 C24        -5.7705    0.8077    0.1623 C.2       1 <0>         0.2131
     34 C25        -7.7290   -0.5113    0.9548 C.3       1 <0>         0.0334
     35 C26        -7.9294   -1.7126    0.0509 C.3       1 <0>         0.1081
     36 H1          0.4866   -0.7449    0.0111 H         1 <0>         0.0310
     37 H2          2.4087    0.5449   -1.9568 H         1 <0>         0.0331
     38 H3          2.7526   -0.4798    0.9008 H         1 <0>         0.0310
     39 H4         -1.4478    0.4595    0.6236 H         1 <0>         0.0310
     40 H5          0.7822    2.7972    1.1350 H         1 <0>         0.0599
     41 H6          2.9804    1.7747    1.6885 H         1 <0>         0.0293
     42 H7          2.8629    2.4400    0.0652 H         1 <0>         0.0293
     43 H8          5.9789   -1.2288   -0.9423 H         1 <0>         0.0308
     44 H9         -0.4339   -1.5251   -2.0107 H         1 <0>         0.0268
     45 H10        -0.0050   -0.0613   -2.9029 H         1 <0>         0.0268
     46 H11         2.1090   -1.7252   -2.6310 H         1 <0>         0.0596
     47 H12        -2.0119    0.8138   -2.3271 H         1 <0>         0.0268
     48 H13        -2.3823   -0.5338   -1.2403 H         1 <0>         0.0268
     49 H14         4.3429   -2.7435   -2.0648 H         1 <0>         0.0293
     50 H15         4.4070   -1.1105   -2.7012 H         1 <0>         0.0293
     51 H16         6.4426    0.6031    0.8687 H         1 <0>         0.0271
     52 H17         5.1150    1.5052    1.5474 H         1 <0>         0.0271
     53 H18         0.2576    3.4395   -1.1173 H         1 <0>         0.0236
     54 H19         1.5568    2.4845   -1.7887 H         1 <0>         0.0236
     55 H20        -0.0741    2.2776   -2.4037 H         1 <0>         0.0236
     56 H21        -1.8678    3.1125   -0.8337 H         1 <0>         0.0301
     57 H22         3.8443   -2.4851    0.8504 H         1 <0>         0.0293
     58 H23         5.2320   -3.2677    0.1492 H         1 <0>         0.0293
     59 H24         4.4559    1.1143   -2.1462 H         1 <0>         0.0235
     60 H25         4.8529    2.2478   -0.8536 H         1 <0>         0.0235
     61 H26         6.0597    1.1065   -1.4304 H         1 <0>         0.0235
     62 H27         5.9146   -0.2374    3.0940 H         1 <0>         0.0290
     63 H28         4.2577   -0.5619    2.6549 H         1 <0>         0.0290
     64 H29         6.7636   -1.8798    1.4788 H         1 <0>         0.0593
     65 H30         1.0580    1.3014    2.7820 H         1 <0>         0.2098
     66 H31        -3.7676    1.7137   -1.5116 H         1 <0>         0.0272
     67 H32        -4.2086    2.9812   -0.4121 H         1 <0>         0.0272
     68 H33         2.3311   -3.4236   -1.1614 H         1 <0>         0.2098
     69 H34        -2.8974    3.6090    1.4774 H         1 <0>         0.0233
     70 H35        -1.1600    3.4672    1.4271 H         1 <0>         0.0233
     71 H36        -2.1269    2.1260    2.0594 H         1 <0>         0.0233
     72 H37         5.7900   -3.7114    2.4367 H         1 <0>         0.2098
     73 H38        -3.8016    0.0544    0.4235 H         1 <0>         0.0358
     74 H39        -4.2451    1.3767    1.5105 H         1 <0>         0.0358
     75 H40        -5.7677   -0.5335    1.7536 H         1 <0>         0.1487
     76 H41        -8.0504   -0.7368    1.9770 H         1 <0>         0.0479
     77 H42        -8.3263    0.3315    0.5907 H         1 <0>         0.0479
     78 H43        -8.9846   -2.0031    0.0532 H         1 <0>         0.0541
     79 H44        -7.6269   -1.4864   -0.9768 H         1 <0>         0.0541
     80 H45        -7.3495   -4.0667   -1.4169 H         1 <0>         0.2445
@<TRIPOS>BOND
     1    1    6 1
     2    1    7 2
     3    1    8 2
     4    1   35 1
     5    2   16 1
     6    2   65 1
     7    3   20 1
     8    3   68 1
     9    4   29 1
    10    4   72 1
    11    5   33 2
    12    6   80 1
    13    9   33 am
    14    9   34 1
    15    9   75 1
    16   10   11 1
    17   10   15 1
    18   10   16 1
    19   10   24 1
    20   11   12 1
    21   11   19 1
    22   11   36 1
    23   12   13 1
    24   12   20 1
    25   12   37 1
    26   13   14 1
    27   13   17 1
    28   13   38 1
    29   14   18 1
    30   14   23 1
    31   14   27 1
    32   15   21 1
    33   15   25 1
    34   15   39 1
    35   16   17 1
    36   16   40 1
    37   17   41 1
    38   17   42 1
    39   18   22 1
    40   18   26 1
    41   18   43 1
    42   19   21 1
    43   19   44 1
    44   19   45 1
    45   20   22 1
    46   20   46 1
    47   21   47 1
    48   21   48 1
    49   22   49 1
    50   22   50 1
    51   23   28 1
    52   23   51 1
    53   23   52 1
    54   24   53 1
    55   24   54 1
    56   24   55 1
    57   25   30 1
    58   25   31 1
    59   25   56 1
    60   26   29 1
    61   26   57 1
    62   26   58 1
    63   27   59 1
    64   27   60 1
    65   27   61 1
    66   28   29 1
    67   28   62 1
    68   28   63 1
    69   29   64 1
    70   30   32 1
    71   30   66 1
    72   30   67 1
    73   31   69 1
    74   31   70 1
    75   31   71 1
    76   32   33 1
    77   32   73 1
    78   32   74 1
    79   34   35 1
    80   34   76 1
    81   34   77 1
    82   35   78 1
    83   35   79 1
