@<TRIPOS>MOLECULE
DB04827
   13    12     0     0     0
SMALL
USER_CHARGES

@<TRIPOS>ATOM
      1 O1          0.3138    0.2991   -0.0001 O.3       1 <0>        -0.4508
      2 O2          1.6002   -1.6100   -0.0000 O.2       1 <0>        -0.2267
      3 N1          2.5539    0.4823    0.0001 N.am      1 <0>        -0.2950
      4 C1         -0.8731   -0.5023   -0.0000 C.3       1 <0>         0.0912
      5 C2         -2.0826    0.4079   -0.0000 C.3       1 <0>        -0.0305
      6 C3          1.4922   -0.3883    0.0000 C.2       1 <0>         0.3977
      7 H1         -0.8859   -1.1352   -0.8943 H         1 <0>         0.0695
      8 H2         -0.8860   -1.1352    0.8943 H         1 <0>         0.0695
      9 H3         -3.0093   -0.1730    0.0001 H         1 <0>         0.0262
     10 H4         -2.0741    1.0601    0.8795 H         1 <0>         0.0262
     11 H5         -2.0742    1.0601   -0.8795 H         1 <0>         0.0262
     12 H6          2.4134    1.4869   -0.0000 H         1 <0>         0.1482
     13 H7          3.5116    0.1476   -0.0000 H         1 <0>         0.1482
@<TRIPOS>BOND
     1    1    4 1
     2    1    6 1
     3    2    6 2
     4    3    6 am
     5    3   12 1
     6    3   13 1
     7    4    5 1
     8    4    7 1
     9    4    8 1
    10    5    9 1
    11    5   10 1
    12    5   11 1
