@<TRIPOS>MOLECULE
DB04953
   40    41     0     0     0
SMALL
USER_CHARGES

@<TRIPOS>ATOM
      1 F1         -8.5831   -0.1544    0.1070 F         1 <0>        -0.2055
      2 O1          5.4607    0.0845    0.0115 O.3       1 <0>        -0.4504
      3 O2          3.8938    1.7497   -0.0276 O.2       1 <0>        -0.2261
      4 N1         -2.3030   -0.3500   -0.0416 N.pl3     1 <0>        -0.3397
      5 N2          3.2920   -0.5163    0.0039 N.am      1 <0>        -0.2494
      6 N3          1.7998   -2.9348    0.0307 N.pl3     1 <0>        -0.3565
      7 C1         -3.0616    0.8819   -0.0669 C.3       1 <0>         0.0344
      8 C2         -0.9198   -0.3977   -0.0303 C.ar      1 <0>         0.0292
      9 C3         -4.5267    0.6075   -0.0211 C.ar      1 <0>        -0.0302
     10 C4          1.8944   -0.4938   -0.0075 C.ar      1 <0>         0.0572
     11 C5         -0.2379   -1.6295   -0.0055 C.ar      1 <0>        -0.0184
     12 C6          1.1561   -1.6771    0.0057 C.ar      1 <0>         0.0479
     13 C7         -0.1551    0.7848   -0.0433 C.ar      1 <0>        -0.0390
     14 C8          1.2389    0.7372   -0.0318 C.ar      1 <0>        -0.0369
     15 C9         -5.2418    0.4356   -1.2063 C.ar      1 <0>        -0.0544
     16 C10        -5.1819    0.5224    1.2074 C.ar      1 <0>        -0.0544
     17 C11        -6.6120    0.1785   -1.1630 C.ar      1 <0>        -0.0261
     18 C12        -6.5523    0.2652    1.2506 C.ar      1 <0>        -0.0261
     19 C13        -7.2674    0.0933    0.0655 C.ar      1 <0>         0.1234
     20 C14         4.1759    0.5578   -0.0060 C.2       1 <0>         0.4046
     21 C15         6.4959    1.0745    0.0033 C.3       1 <0>         0.0913
     22 C16         7.8415    0.3813    0.0249 C.3       1 <0>        -0.0305
     23 H1         -2.8283    1.4558   -0.9731 H         1 <0>         0.0511
     24 H2         -2.7922    1.5171    0.7870 H         1 <0>         0.0511
     25 H3         -2.8016   -1.2335   -0.0394 H         1 <0>         0.1464
     26 H4         -0.8111   -2.5552    0.0049 H         1 <0>         0.0655
     27 H5         -0.6242    1.7650   -0.0641 H         1 <0>         0.0637
     28 H6          1.7352    1.6970   -0.0437 H         1 <0>         0.0637
     29 H7         -4.7428    0.4973   -2.1698 H         1 <0>         0.0622
     30 H8         -4.6361    0.6522    2.1383 H         1 <0>         0.0622
     31 H9          3.7335   -1.4296    0.0219 H         1 <0>         0.1582
     32 H10        -7.1691    0.0439   -2.0854 H         1 <0>         0.0646
     33 H11        -7.0626    0.1980    2.2068 H         1 <0>         0.0646
     34 H12         1.2404   -3.7779    0.0404 H         1 <0>         0.1424
     35 H13         2.8052   -3.0154    0.0400 H         1 <0>         0.1424
     36 H14         6.4089    1.6857   -0.9019 H         1 <0>         0.0695
     37 H15         6.3952    1.7148    0.8868 H         1 <0>         0.0695
     38 H16         8.6570    1.1099    0.0192 H         1 <0>         0.0262
     39 H17         7.9363   -0.2486    0.9156 H         1 <0>         0.0262
     40 H18         7.9496   -0.2772   -0.8433 H         1 <0>         0.0262
@<TRIPOS>BOND
     1    1   19 1
     2    2   20 1
     3    2   21 1
     4    3   20 2
     5    4    7 1
     6    4    8 1
     7    4   25 1
     8    5   10 1
     9    5   20 am
    10    5   31 1
    11    6   12 1
    12    6   34 1
    13    6   35 1
    14    7    9 1
    15    7   23 1
    16    7   24 1
    17    8   11 ar
    18    8   13 ar
    19    9   15 ar
    20    9   16 ar
    21   10   12 ar
    22   10   14 ar
    23   11   12 ar
    24   11   26 1
    25   13   14 ar
    26   13   27 1
    27   14   28 1
    28   15   17 ar
    29   15   29 1
    30   16   18 ar
    31   16   30 1
    32   17   19 ar
    33   17   32 1
    34   18   19 ar
    35   18   33 1
    36   21   22 1
    37   21   36 1
    38   21   37 1
    39   22   38 1
    40   22   39 1
    41   22   40 1
