@<TRIPOS>MOLECULE
DB04840
   26    27     0     0     0
SMALL
USER_CHARGES

@<TRIPOS>ATOM
      1 N1         -1.4646   -0.1323    0.1416 N.pl3     1 <0>        -0.2209
      2 N2         -3.2724    1.2489   -0.0401 N.pl3     1 <0>        -0.2518
      3 N3         -3.3781   -0.9239   -0.9348 N.2       1 <0>        -0.1335
      4 C1          0.2733   -1.8286   -0.0047 C.3       1 <0>         0.0018
      5 C2         -0.9968   -1.3895    0.7166 C.3       1 <0>         0.0648
      6 C3         -0.5497    1.0065    0.2384 C.3       1 <0>         0.0861
      7 C4          1.2992   -0.7264   -0.0347 C.ar      1 <0>        -0.0386
      8 C5          0.9004    0.6194    0.0582 C.ar      1 <0>        -0.0125
      9 C6          2.6542   -1.0384   -0.2102 C.ar      1 <0>        -0.0581
     10 C7          1.8734    1.6286    0.0055 C.ar      1 <0>        -0.0555
     11 C8         -2.7331    0.0179   -0.3072 C.2       1 <0>         0.3623
     12 C9          3.6107   -0.0252   -0.2660 C.ar      1 <0>        -0.0615
     13 C10         3.2209    1.3071   -0.1558 C.ar      1 <0>        -0.0614
     14 H1          0.0387   -2.1079   -1.0393 H         1 <0>         0.0342
     15 H2          0.6810   -2.7124    0.4998 H         1 <0>         0.0342
     16 H3         -1.7508   -2.1815    0.6418 H         1 <0>         0.0637
     17 H4         -0.7998   -1.2423    1.7863 H         1 <0>         0.0637
     18 H5         -0.6649    1.4777    1.2221 H         1 <0>         0.0685
     19 H6         -0.7850    1.7467   -0.5372 H         1 <0>         0.0685
     20 H7          2.9714   -2.0741   -0.3028 H         1 <0>         0.0620
     21 H8          1.5831    2.6733    0.0876 H         1 <0>         0.0621
     22 H9          4.6594   -0.2754   -0.3971 H         1 <0>         0.0618
     23 H10         3.9657    2.0964   -0.1980 H         1 <0>         0.0618
     24 H11        -4.2146    1.4771   -0.3392 H         1 <0>         0.2412
     25 H12        -2.8078    1.9357    0.5426 H         1 <0>         0.2412
     26 H13        -4.3138   -0.5774   -1.1733 H         1 <0>         0.3058
@<TRIPOS>BOND
     1    1    5 1
     2    1    6 1
     3    1   11 1
     4    2   11 1
     5    2   24 1
     6    2   25 1
     7    3   11 2
     8    3   26 1
     9    4    5 1
    10    4    7 1
    11    4   14 1
    12    4   15 1
    13    5   16 1
    14    5   17 1
    15    6    8 1
    16    6   18 1
    17    6   19 1
    18    7    8 ar
    19    7    9 ar
    20    8   10 ar
    21    9   12 ar
    22    9   20 1
    23   10   13 ar
    24   10   21 1
    25   12   13 ar
    26   12   22 1
    27   13   23 1
