@<TRIPOS>MOLECULE
DB04794
   42    45     0     0     0
SMALL
USER_CHARGES

@<TRIPOS>ATOM
      1 N1         -2.4574    1.7761   -0.0085 N.pl3     1 <0>        -0.3254
      2 N2         -3.0059    3.8616    0.2204 N.2       1 <0>        -0.2440
      3 C1         -1.9171    0.5332   -0.6471 C.3       1 <0>         0.0855
      4 C2         -0.4435    0.3617   -0.4933 C.ar      1 <0>        -0.0203
      5 C3         -2.8079   -0.6820   -0.3334 C.ar      1 <0>        -0.0203
      6 C4          0.3120   -0.1589   -1.5441 C.ar      1 <0>        -0.0557
      7 C5          0.1791    0.7219    0.7018 C.ar      1 <0>        -0.0557
      8 C6          2.3126    0.0405   -0.2047 C.ar      1 <0>        -0.0179
      9 C7         -3.9665   -0.8409   -1.0505 C.ar      1 <0>        -0.0563
     10 C8         -2.4016   -1.5496    0.6484 C.ar      1 <0>        -0.0563
     11 C9          1.6899   -0.3196   -1.3996 C.ar      1 <0>        -0.0537
     12 C10         1.5572    0.5613    0.8462 C.ar      1 <0>        -0.0537
     13 C11        -2.9880    1.8248    1.2145 C.cat     1 <0>         0.0250
     14 C12        -2.4694    2.9773   -0.5909 C.cat     1 <0>         0.0967
     15 C13         3.7422   -0.1252   -0.0547 C.ar      1 <0>        -0.0179
     16 C14        -4.7739   -1.9421   -0.7663 C.ar      1 <0>        -0.0614
     17 C15        -3.2091   -2.6511    0.9325 C.ar      1 <0>        -0.0614
     18 C16        -3.3309    3.1498    1.3478 C.2       1 <0>         0.0454
     19 C17        -4.3952   -2.8472    0.2250 C.ar      1 <0>        -0.0617
     20 C18         4.2568   -1.3221    0.4443 C.ar      1 <0>        -0.0540
     21 C19         4.6058    0.9110   -0.4097 C.ar      1 <0>        -0.0540
     22 C20         5.6349   -1.4822    0.5885 C.ar      1 <0>        -0.0612
     23 C21         5.9840    0.7506   -0.2654 C.ar      1 <0>        -0.0612
     24 C22         6.4984   -0.4459    0.2337 C.ar      1 <0>        -0.0617
     25 H1         -2.0773    0.7394   -1.7190 H         1 <0>         0.0628
     26 H2         -0.1598   -0.4464   -2.4801 H         1 <0>         0.0621
     27 H3         -0.3749    1.1143    1.5479 H         1 <0>         0.0621
     28 H4         -4.2683   -0.1395   -1.8218 H         1 <0>         0.0621
     29 H5         -1.4936   -1.4193    1.2248 H         1 <0>         0.0621
     30 H6          2.2638   -0.7275   -2.2283 H         1 <0>         0.0624
     31 H7          2.0266    0.8435    1.7857 H         1 <0>         0.0624
     32 H8         -3.0849    0.9909    1.8951 H         1 <0>         0.0825
     33 H9         -2.0906    3.1842   -1.5825 H         1 <0>         0.1029
     34 H10        -5.6979   -2.0945   -1.3165 H         1 <0>         0.0618
     35 H11        -2.9162   -3.3544    1.7065 H         1 <0>         0.0618
     36 H12        -3.7926    3.6278    2.1995 H         1 <0>         0.0845
     37 H13        -5.0243   -3.7042    0.4469 H         1 <0>         0.0618
     38 H14         3.5978   -2.1400    0.7256 H         1 <0>         0.0624
     39 H15         4.2215    1.8502   -0.8003 H         1 <0>         0.0624
     40 H16         6.0359   -2.4138    0.9771 H         1 <0>         0.0618
     41 H17         6.6566    1.5574   -0.5417 H         1 <0>         0.0618
     42 H18         7.5715   -0.5708    0.3459 H         1 <0>         0.0618
@<TRIPOS>BOND
     1    1    3 1
     2    1   13 1
     3    1   14 2
     4    2   14 1
     5    2   18 2
     6    3    4 1
     7    3    5 1
     8    3   25 1
     9    4    6 ar
    10    4    7 ar
    11    5    9 ar
    12    5   10 ar
    13    6   11 ar
    14    6   26 1
    15    7   12 ar
    16    7   27 1
    17    8   11 ar
    18    8   12 ar
    19    8   15 1
    20    9   16 ar
    21    9   28 1
    22   10   17 ar
    23   10   29 1
    24   11   30 1
    25   12   31 1
    26   13   18 1
    27   13   32 1
    28   14   33 1
    29   15   20 ar
    30   15   21 ar
    31   16   19 ar
    32   16   34 1
    33   17   19 ar
    34   17   35 1
    35   18   36 1
    36   19   37 1
    37   20   22 ar
    38   20   38 1
    39   21   23 ar
    40   21   39 1
    41   22   24 ar
    42   22   40 1
    43   23   24 ar
    44   23   41 1
    45   24   42 1
