@<TRIPOS>MOLECULE
DB04832
   36    37     0     0     0
SMALL
USER_CHARGES

@<TRIPOS>ATOM
      1 Br1         6.4786   -1.2837   -0.5514 Br        1 <0>        -0.0503
      2 N1         -2.4972   -1.8142    0.1338 N.3       1 <0>        -0.3047
      3 N2         -0.5120    3.4716    1.1712 N.ar      1 <0>        -0.2627
      4 C1          0.5484   -0.0201    0.3779 C.2       1 <0>        -0.0120
      5 C2         -1.7282   -0.9893    1.0649 C.3       1 <0>         0.0174
      6 C3         -0.2580   -1.0392    0.7499 C.2       1 <0>        -0.0618
      7 C4          1.9853   -0.3264    0.1527 C.ar      1 <0>        -0.0175
      8 C5          0.0001    1.3434    0.2034 C.ar      1 <0>         0.0005
      9 C6          2.8623   -0.2211    1.2120 C.ar      1 <0>        -0.0530
     10 C7          2.3953   -0.7060   -1.1083 C.ar      1 <0>        -0.0530
     11 C8         -2.3110   -1.3445   -1.2387 C.3       1 <0>        -0.0127
     12 C9         -3.9155   -1.8011    0.4905 C.3       1 <0>        -0.0127
     13 C10        -0.4854    1.7388   -1.0220 C.ar      1 <0>        -0.0511
     14 C11        -0.0251    2.2138    1.2625 C.ar      1 <0>         0.0353
     15 C12         4.2108   -0.5084    1.0008 C.ar      1 <0>        -0.0472
     16 C13         3.7437   -0.9934   -1.3195 C.ar      1 <0>        -0.0472
     17 C14         4.6516   -0.8945   -0.2650 C.ar      1 <0>         0.0179
     18 C15        -0.9945    3.0258   -1.1554 C.ar      1 <0>        -0.0430
     19 C16        -0.9853    3.8459   -0.0385 C.ar      1 <0>         0.0276
     20 H1         -1.8494   -1.3808    2.0832 H         1 <0>         0.0470
     21 H2         -2.1121    0.0372    1.0831 H         1 <0>         0.0470
     22 H3          0.1851   -2.0299    0.8658 H         1 <0>         0.0591
     23 H4          2.5299    0.0782    2.2021 H         1 <0>         0.0624
     24 H5          1.6969   -0.7871   -1.9365 H         1 <0>         0.0624
     25 H6         -1.2793   -1.4631   -1.5849 H         1 <0>         0.0391
     26 H7         -2.6171   -0.3003   -1.3654 H         1 <0>         0.0391
     27 H8         -2.9160   -1.9493   -1.9253 H         1 <0>         0.0391
     28 H9         -4.4859   -2.4579   -0.1757 H         1 <0>         0.0391
     29 H10        -4.3482   -0.7954    0.4363 H         1 <0>         0.0391
     30 H11        -4.0606   -2.1846    1.5067 H         1 <0>         0.0391
     31 H12        -0.4735    1.0779   -1.8835 H         1 <0>         0.0625
     32 H13         0.3459    1.9427    2.2458 H         1 <0>         0.0836
     33 H14         4.9050   -0.4266    1.8332 H         1 <0>         0.0629
     34 H15         4.0708   -1.2932   -2.3118 H         1 <0>         0.0629
     35 H16        -1.3846    3.3764   -2.1039 H         1 <0>         0.0633
     36 H17        -1.3709    4.8587   -0.0902 H         1 <0>         0.0829
@<TRIPOS>BOND
     1    1   17 1
     2    2    5 1
     3    2   11 1
     4    2   12 1
     5    3   14 ar
     6    3   19 ar
     7    4    6 2
     8    4    7 1
     9    4    8 1
    10    5    6 1
    11    5   20 1
    12    5   21 1
    13    6   22 1
    14    7    9 ar
    15    7   10 ar
    16    8   13 ar
    17    8   14 ar
    18    9   15 ar
    19    9   23 1
    20   10   16 ar
    21   10   24 1
    22   11   25 1
    23   11   26 1
    24   11   27 1
    25   12   28 1
    26   12   29 1
    27   12   30 1
    28   13   18 ar
    29   13   31 1
    30   14   32 1
    31   15   17 ar
    32   15   33 1
    33   16   17 ar
    34   16   34 1
    35   18   19 ar
    36   18   35 1
    37   19   36 1
