@<TRIPOS>MOLECULE
DB04564
   22    22     0     0     0
SMALL
USER_CHARGES

@<TRIPOS>ATOM
      1 O1         -0.3765   -1.5890    0.1133 O.3       1 <0>        -0.4545
      2 O2         -0.7351    2.0808    0.4595 O.3       1 <0>        -0.3854
      3 O3          1.8780    1.8226   -0.6292 O.3       1 <0>        -0.3860
      4 O4          3.1093   -0.7237   -0.0377 O.3       1 <0>        -0.3783
      5 O5         -2.6062   -0.4857   -1.1720 O.3       1 <0>        -0.3913
      6 O6          1.4887   -2.8503    0.2394 O.2       1 <0>        -0.2478
      7 C1         -0.2685    0.8668   -0.1226 C.3       1 <0>         0.1229
      8 C2          1.2340    0.7759    0.0998 C.3       1 <0>         0.1207
      9 C3         -0.9438   -0.3304    0.5372 C.3       1 <0>         0.1542
     10 C4          1.7523   -0.5506   -0.4230 C.3       1 <0>         0.1800
     11 C5         -2.4375   -0.3928    0.2306 C.3       1 <0>         0.0838
     12 C6          0.9676   -1.7555    0.0458 C.2       1 <0>         0.3391
     13 H1         -0.4672    0.9132   -1.2004 H         1 <0>         0.0658
     14 H2          1.4914    0.9203    1.1561 H         1 <0>         0.0652
     15 H3         -0.8347   -0.2724    1.6279 H         1 <0>         0.0784
     16 H4          1.7358   -0.5608   -1.5193 H         1 <0>         0.0738
     17 H5         -2.9704    0.4905    0.5928 H         1 <0>         0.0595
     18 H6         -2.8931   -1.2806    0.6817 H         1 <0>         0.0595
     19 H7         -1.6550    2.2117    0.1748 H         1 <0>         0.2101
     20 H8          1.5089    2.6652   -0.3135 H         1 <0>         0.2100
     21 H9          3.1542   -0.6757    0.9326 H         1 <0>         0.2106
     22 H10        -2.1322   -1.2794   -1.4740 H         1 <0>         0.2096
@<TRIPOS>BOND
     1    1    9 1
     2    1   12 1
     3    2    7 1
     4    2   19 1
     5    3    8 1
     6    3   20 1
     7    4   10 1
     8    4   21 1
     9    5   11 1
    10    5   22 1
    11    6   12 2
    12    7    8 1
    13    7    9 1
    14    7   13 1
    15    8   10 1
    16    8   14 1
    17    9   11 1
    18    9   15 1
    19   10   12 1
    20   10   16 1
    21   11   17 1
    22   11   18 1
