@<TRIPOS>MOLECULE
DB04812
   33    35     0     0     0
SMALL
USER_CHARGES

@<TRIPOS>ATOM
      1 Cl1        -7.7854    0.6941    0.0353 Cl        1 <0>        -0.0835
      2 O1         -1.4518   -1.3246    0.0696 O.3       1 <0>        -0.4353
      3 O2          5.7386    1.0405    1.1092 O.3       1 <0>        -0.4802
      4 O3          3.6656    1.0784    2.0243 O.2       1 <0>        -0.2503
      5 N1         -0.9274    0.8761   -0.0682 N.2       1 <0>        -0.2089
      6 C1          3.9918   -0.1353   -0.0701 C.3       1 <0>         0.0785
      7 C2          2.5454   -0.5048   -0.0296 C.ar      1 <0>        -0.0317
      8 C3          0.2265    0.1307   -0.0382 C.ar      1 <0>         0.1102
      9 C4          1.5764    0.5080   -0.0778 C.ar      1 <0>        -0.0286
     10 C5         -0.0907   -1.2170    0.0464 C.ar      1 <0>         0.1557
     11 C6          2.1817   -1.8544    0.0557 C.ar      1 <0>        -0.0542
     12 C7          0.8396   -2.2478    0.0963 C.ar      1 <0>        -0.0169
     13 C8          4.4110    0.6010   -1.3576 C.3       1 <0>        -0.0482
     14 C9         -1.8763   -0.0319   -0.0019 C.2       1 <0>         0.2284
     15 C10        -3.3023    0.1433    0.0071 C.ar      1 <0>         0.0370
     16 C11         4.4192    0.7140    1.1311 C.2       1 <0>         0.3119
     17 C12        -4.1467   -0.9678    0.0852 C.ar      1 <0>        -0.0481
     18 C13        -3.8536    1.4258   -0.0624 C.ar      1 <0>        -0.0481
     19 C14        -5.5312   -0.7979    0.0936 C.ar      1 <0>        -0.0427
     20 C15        -5.2380    1.5957   -0.0538 C.ar      1 <0>        -0.0427
     21 C16        -6.0769    0.4840    0.0240 C.ar      1 <0>         0.0410
     22 H1          4.5926   -1.0531   -0.0046 H         1 <0>         0.0459
     23 H2          1.8478    1.5564   -0.1450 H         1 <0>         0.0643
     24 H3          2.9457   -2.6282    0.0921 H         1 <0>         0.0622
     25 H4          0.5478   -3.2884    0.1621 H         1 <0>         0.0655
     26 H5          4.0855    0.0464   -2.2447 H         1 <0>         0.0241
     27 H6          3.9773    1.6060   -1.4087 H         1 <0>         0.0241
     28 H7          5.4993    0.7110   -1.4159 H         1 <0>         0.0241
     29 H8         -3.7610   -1.9827    0.1409 H         1 <0>         0.0626
     30 H9         -3.2200    2.3076   -0.1238 H         1 <0>         0.0626
     31 H10        -6.1729   -1.6731    0.1547 H         1 <0>         0.0632
     32 H11        -5.6495    2.6004   -0.1084 H         1 <0>         0.0632
     33 H12         5.9921    1.5876    1.8830 H         1 <0>         0.2951
@<TRIPOS>BOND
     1    1   21 1
     2    2   10 1
     3    2   14 1
     4    3   16 1
     5    3   33 1
     6    4   16 2
     7    5    8 1
     8    5   14 2
     9    6    7 1
    10    6   13 1
    11    6   16 1
    12    6   22 1
    13    7    9 ar
    14    7   11 ar
    15    8    9 ar
    16    8   10 ar
    17    9   23 1
    18   10   12 ar
    19   11   12 ar
    20   11   24 1
    21   12   25 1
    22   13   26 1
    23   13   27 1
    24   13   28 1
    25   14   15 1
    26   15   17 ar
    27   15   18 ar
    28   17   19 ar
    29   17   29 1
    30   18   20 ar
    31   18   30 1
    32   19   21 ar
    33   19   31 1
    34   20   21 ar
    35   20   32 1
