@<TRIPOS>MOLECULE
DB04813
   25    26     0     0     0
SMALL
USER_CHARGES

@<TRIPOS>ATOM
      1 Cl1         4.8509    1.5576    0.1495 Cl        1 <0>        -0.0797
      2 Cl2        -4.8510   -1.5577    0.1500 Cl        1 <0>        -0.0797
      3 Cl3         2.3406   -2.7782    2.1201 Cl        1 <0>        -0.0835
      4 Cl4        -2.3407    2.7787    2.1197 Cl        1 <0>        -0.0835
      5 S1         -0.0001   -0.0002   -1.9187 S.3       1 <0>        -0.0820
      6 O1          2.4868    1.7237   -1.6545 O.3       1 <0>        -0.5042
      7 O2         -2.4870   -1.7240   -1.6541 O.3       1 <0>        -0.5042
      8 C1          1.3653   -0.2040   -0.7824 C.ar      1 <0>         0.0570
      9 C2         -1.3636    0.2037   -0.7839 C.ar      1 <0>         0.0570
     10 C3          2.4478    0.6759   -0.7791 C.ar      1 <0>         0.1488
     11 C4         -2.4479   -0.6760   -0.7789 C.ar      1 <0>         0.1488
     12 C5          1.3321   -1.2720    0.1142 C.ar      1 <0>        -0.0260
     13 C6         -1.3324    1.2720    0.1139 C.ar      1 <0>        -0.0260
     14 C7          3.4968    0.4879    0.1208 C.ar      1 <0>         0.0848
     15 C8         -3.4969   -0.4878    0.1210 C.ar      1 <0>         0.0848
     16 C9          2.3813   -1.4602    1.0141 C.ar      1 <0>         0.0436
     17 C10        -2.3813    1.4603    1.0138 C.ar      1 <0>         0.0436
     18 C11         3.4635   -0.5801    1.0174 C.ar      1 <0>        -0.0214
     19 C12        -3.4637    0.5804    1.0172 C.ar      1 <0>        -0.0214
     20 H1          0.4970   -1.9697    0.1159 H         1 <0>         0.0644
     21 H2         -0.4974    1.9701    0.1158 H         1 <0>         0.0644
     22 H3          4.2812   -0.7283    1.7198 H         1 <0>         0.0648
     23 H4         -4.2812    0.7287    1.7196 H         1 <0>         0.0648
     24 H5          1.6787    1.7018   -2.1957 H         1 <0>         0.2923
     25 H6         -1.6789   -1.7024   -2.1955 H         1 <0>         0.2923
@<TRIPOS>BOND
     1    1   14 1
     2    2   15 1
     3    3   16 1
     4    4   17 1
     5    5    8 1
     6    5    9 1
     7    6   10 1
     8    6   24 1
     9    7   11 1
    10    7   25 1
    11    8   10 ar
    12    8   12 ar
    13    9   11 ar
    14    9   13 ar
    15   10   14 ar
    16   11   15 ar
    17   12   16 ar
    18   12   20 1
    19   13   17 ar
    20   13   21 1
    21   14   18 ar
    22   15   19 ar
    23   16   18 ar
    24   17   19 ar
    25   18   22 1
    26   19   23 1
