@<TRIPOS>MOLECULE
DB04703
   77    81     0     0     0
SMALL
USER_CHARGES

@<TRIPOS>ATOM
      1 O1          3.4436    0.5880   -0.0779 O.3       1 <0>        -0.3313
      2 O2          1.9268   -1.5336    0.8234 O.3       1 <0>        -0.3461
      3 O3          1.2550   -3.7690    1.2504 O.3       1 <0>        -0.3431
      4 O4          5.1383   -2.1120   -1.8810 O.3       1 <0>        -0.3865
      5 O5          3.4346    2.9058   -0.3457 O.3       1 <0>        -0.4606
      6 O6          6.7846    0.1987   -2.4344 O.3       1 <0>        -0.3864
      7 O7          5.1287    2.6303   -2.5957 O.3       1 <0>        -0.3829
      8 O8          0.1912   -2.8179    3.7451 O.3       1 <0>        -0.3841
      9 O9         -2.0271   -1.6089    2.5780 O.3       1 <0>        -0.3864
     10 O10        -2.2338   -3.1894    0.2104 O.3       1 <0>        -0.3866
     11 O11        -1.2430    2.0954   -0.3002 O.3       1 <0>        -0.4828
     12 O12         0.8105    4.9602    3.0428 O.3       1 <0>        -0.5058
     13 O13        -1.7592    4.5477    2.9479 O.2       1 <0>        -0.2917
     14 O14        -6.5838   -0.5590   -2.2281 O.3       1 <0>        -0.4915
     15 O15        -6.1638   -1.1667    0.4517 O.3       1 <0>        -0.5033
     16 C1          3.5959   -0.6970   -0.6833 C.3       1 <0>         0.1144
     17 C2          5.0247   -0.8616   -1.2068 C.3       1 <0>         0.1120
     18 C3          5.3820    0.2680   -2.1729 C.3       1 <0>         0.1152
     19 C4          5.0423    1.6342   -1.5770 C.3       1 <0>         0.1454
     20 C5          0.3671   -1.9604    2.6162 C.3       1 <0>         0.1341
     21 C6          1.5548   -2.4870    1.8126 C.3       1 <0>         0.1879
     22 C7         -0.9049   -1.9488    1.7669 C.3       1 <0>         0.1140
     23 C8         -1.1450   -3.3144    1.1220 C.3       1 <0>         0.1095
     24 C9          3.6243    1.6549   -1.0062 C.3       1 <0>         0.2308
     25 C10         3.2565   -1.7455    0.3713 C.3       1 <0>         0.0796
     26 C11         0.1175   -3.7775    0.3818 C.3       1 <0>         0.0873
     27 C12        -0.0232   -5.1993   -0.1548 C.3       1 <0>        -0.0361
     28 C13         2.2119    3.1142    0.2315 C.ar      1 <0>         0.1310
     29 C14         1.0747    2.5153   -0.3113 C.ar      1 <0>         0.0229
     30 C15        -0.1708    2.7185    0.2845 C.ar      1 <0>         0.1389
     31 C16         2.1050    3.9243    1.3625 C.ar      1 <0>         0.0226
     32 C17        -2.3335    1.8868    0.6109 C.3       1 <0>         0.1323
     33 C18        -0.2783    3.5480    1.4045 C.ar      1 <0>         0.1007
     34 C19        -2.7794    3.2043    1.2421 C.3       1 <0>         0.0520
     35 C20         0.8594    4.1476    1.9506 C.ar      1 <0>         0.1343
     36 C21        -1.6144    3.8183    1.9741 C.2       1 <0>         0.1740
     37 C22        -3.4700    1.2312   -0.1448 C.ar      1 <0>        -0.0033
     38 C23        -4.3064    0.3225    0.5037 C.ar      1 <0>        -0.0098
     39 C24        -3.6807    1.5361   -1.4895 C.ar      1 <0>        -0.0514
     40 C25        -5.3538   -0.2811   -0.1925 C.ar      1 <0>         0.1588
     41 C26        -4.7279    0.9323   -2.1858 C.ar      1 <0>        -0.0159
     42 C27        -5.5644    0.0237   -1.5373 C.ar      1 <0>         0.1613
     43 C28        -6.7302   -0.1930   -3.5987 C.3       1 <0>         0.0790
     44 H1          2.8638   -0.7873   -1.4974 H         1 <0>         0.0647
     45 H2          5.7383   -0.8732   -0.3738 H         1 <0>         0.0647
     46 H3          4.8844    0.1272   -3.1396 H         1 <0>         0.0648
     47 H4          5.7705    1.9081   -0.8043 H         1 <0>         0.0683
     48 H5          0.5594   -0.9502    2.9959 H         1 <0>         0.0671
     49 H6          2.3925   -2.6424    2.5044 H         1 <0>         0.0937
     50 H7         -0.8311   -1.1801    0.9875 H         1 <0>         0.0648
     51 H8         -1.4402   -4.0413    1.8878 H         1 <0>         0.0646
     52 H9          2.9324    1.5624   -1.8525 H         1 <0>         0.1084
     53 H10         3.9391   -1.6440    1.2239 H         1 <0>         0.0587
     54 H11         3.3493   -2.7546   -0.0453 H         1 <0>         0.0587
     55 H12         0.3180   -3.1225   -0.4759 H         1 <0>         0.0621
     56 H13        -0.8519   -5.2811   -0.8642 H         1 <0>         0.0255
     57 H14        -0.1881   -5.9104    0.6622 H         1 <0>         0.0255
     58 H15         0.8985   -5.5088   -0.6596 H         1 <0>         0.0255
     59 H16         4.4984   -2.1178   -2.6132 H         1 <0>         0.2100
     60 H17         7.2559    0.3379   -1.5954 H         1 <0>         0.2100
     61 H18         4.4969    2.4002   -3.2981 H         1 <0>         0.2102
     62 H19         0.9937   -2.7543    4.2905 H         1 <0>         0.2101
     63 H20        -1.8446   -0.7435    2.9821 H         1 <0>         0.2100
     64 H21        -1.9755   -2.5590   -0.4834 H         1 <0>         0.2100
     65 H22         1.0972    1.8955   -1.2004 H         1 <0>         0.0691
     66 H23         2.9953    4.3878    1.7808 H         1 <0>         0.0691
     67 H24        -1.9835    1.1880    1.3844 H         1 <0>         0.0789
     68 H25        -3.5938    3.0323    1.9547 H         1 <0>         0.0385
     69 H26        -3.1150    3.9253    0.4873 H         1 <0>         0.0385
     70 H27        -4.1443    0.0895    1.5531 H         1 <0>         0.0659
     71 H28        -3.0508    2.2502   -2.0129 H         1 <0>         0.0623
     72 H29        -0.0880    4.9887    3.4054 H         1 <0>         0.2922
     73 H30        -4.8334    1.2188   -3.2264 H         1 <0>         0.0655
     74 H31        -5.8675   -1.2548    1.3738 H         1 <0>         0.2923
     75 H32        -6.9659    0.8710   -3.7094 H         1 <0>         0.0660
     76 H33        -5.8588   -0.4911   -4.1915 H         1 <0>         0.0660
     77 H34        -7.5872   -0.7504   -3.9913 H         1 <0>         0.0660
@<TRIPOS>BOND
     1    1   16 1
     2    1   24 1
     3    2   21 1
     4    2   25 1
     5    3   21 1
     6    3   26 1
     7    4   17 1
     8    4   59 1
     9    5   24 1
    10    5   28 1
    11    6   18 1
    12    6   60 1
    13    7   19 1
    14    7   61 1
    15    8   20 1
    16    8   62 1
    17    9   22 1
    18    9   63 1
    19   10   23 1
    20   10   64 1
    21   11   30 1
    22   11   32 1
    23   12   35 1
    24   12   72 1
    25   13   36 2
    26   14   42 1
    27   14   43 1
    28   15   40 1
    29   15   74 1
    30   16   17 1
    31   16   25 1
    32   16   44 1
    33   17   18 1
    34   17   45 1
    35   18   19 1
    36   18   46 1
    37   19   24 1
    38   19   47 1
    39   20   21 1
    40   20   22 1
    41   20   48 1
    42   21   49 1
    43   22   23 1
    44   22   50 1
    45   23   26 1
    46   23   51 1
    47   24   52 1
    48   25   53 1
    49   25   54 1
    50   26   27 1
    51   26   55 1
    52   27   56 1
    53   27   57 1
    54   27   58 1
    55   28   29 ar
    56   28   31 ar
    57   29   30 ar
    58   29   65 1
    59   30   33 ar
    60   31   35 ar
    61   31   66 1
    62   32   34 1
    63   32   37 1
    64   32   67 1
    65   33   35 ar
    66   33   36 1
    67   34   36 1
    68   34   68 1
    69   34   69 1
    70   37   38 ar
    71   37   39 ar
    72   38   40 ar
    73   38   70 1
    74   39   41 ar
    75   39   71 1
    76   40   42 ar
    77   41   42 ar
    78   41   73 1
    79   43   75 1
    80   43   76 1
    81   43   77 1
