@<TRIPOS>MOLECULE
DB04224
   54    53     0     0     0
SMALL
USER_CHARGES

@<TRIPOS>ATOM
      1 O1         -6.6568   -1.0616   -1.5928 O.3       1 <0>        -0.4806
      2 O2         -6.5927    0.1824    0.3115 O.2       1 <0>        -0.2510
      3 C1          2.2409   -1.9098   -0.5091 C.3       1 <0>        -0.0530
      4 C2          2.5405   -1.0479   -1.7373 C.3       1 <0>        -0.0528
      5 C3          0.8335   -2.5154   -0.5204 C.3       1 <0>        -0.0531
      6 C4         -0.1930    2.1880    0.0635 C.3       1 <0>        -0.0528
      7 C5         -1.6460    1.9588    0.4846 C.3       1 <0>        -0.0530
      8 C6          3.9751   -0.5064   -1.7609 C.3       1 <0>        -0.0496
      9 C7          0.5605    3.0224    1.1038 C.3       1 <0>        -0.0496
     10 C8         -2.3924    1.0980   -0.5370 C.3       1 <0>        -0.0526
     11 C9          0.5040   -3.4584    0.6414 C.3       1 <0>        -0.0533
     12 C10         4.3707    0.3685   -0.5653 C.3       1 <0>        -0.0348
     13 C11         2.0142    3.2993    0.7086 C.3       1 <0>        -0.0348
     14 C12        -3.8371    0.8426   -0.0962 C.3       1 <0>        -0.0430
     15 C13         0.5349   -2.8303    2.0362 C.3       1 <0>        -0.0559
     16 C14         3.5489    1.6204   -0.4565 C.2       1 <0>        -0.0879
     17 C15         2.8366    2.0481    0.5973 C.2       1 <0>        -0.0879
     18 C16        -4.6185    0.0076   -1.1106 C.3       1 <0>         0.0448
     19 C17        -0.4138   -1.6531    2.1962 C.3       1 <0>        -0.0653
     20 C18        -6.0472   -0.2461   -0.6943 C.2       1 <0>         0.3047
     21 H1          2.3498   -1.3049    0.3968 H         1 <0>         0.0265
     22 H2          2.9783   -2.7192   -0.4457 H         1 <0>         0.0265
     23 H3          2.3844   -1.6468   -2.6430 H         1 <0>         0.0265
     24 H4          1.8259   -0.2180   -1.7875 H         1 <0>         0.0265
     25 H5          0.0920   -1.7093   -0.5655 H         1 <0>         0.0265
     26 H6          0.7120   -3.0843   -1.4514 H         1 <0>         0.0265
     27 H7          0.2971    1.2166   -0.0686 H         1 <0>         0.0265
     28 H8         -0.1669    2.6987   -0.9066 H         1 <0>         0.0265
     29 H9         -1.6703    1.4672    1.4648 H         1 <0>         0.0265
     30 H10        -2.1544    2.9243    0.5943 H         1 <0>         0.0265
     31 H11         4.1150    0.0635   -2.6884 H         1 <0>         0.0268
     32 H12         4.6710   -1.3533   -1.8135 H         1 <0>         0.0268
     33 H13         0.5335    2.5109    2.0743 H         1 <0>         0.0268
     34 H14         0.0475    3.9827    1.2385 H         1 <0>         0.0268
     35 H15        -1.8749    0.1392   -0.6618 H         1 <0>         0.0265
     36 H16        -2.3883    1.5986   -1.5127 H         1 <0>         0.0265
     37 H17        -0.4935   -3.8816    0.4686 H         1 <0>         0.0265
     38 H18         1.2044   -4.3025    0.6234 H         1 <0>         0.0265
     39 H19         5.4192    0.6664   -0.6896 H         1 <0>         0.0307
     40 H20         4.3272   -0.2090    0.3646 H         1 <0>         0.0307
     41 H21         2.4701    3.9429    1.4702 H         1 <0>         0.0307
     42 H22         2.0379    3.8583   -0.2345 H         1 <0>         0.0307
     43 H23        -4.3486    1.8016    0.0552 H         1 <0>         0.0270
     44 H24        -3.8396    0.3319    0.8752 H         1 <0>         0.0270
     45 H25         0.2646   -3.6010    2.7681 H         1 <0>         0.0263
     46 H26         1.5537   -2.5117    2.2832 H         1 <0>         0.0263
     47 H27         3.5484    2.2486   -1.3462 H         1 <0>         0.0569
     48 H28         2.8506    1.4272    1.4921 H         1 <0>         0.0569
     49 H29        -4.6358    0.5245   -2.0766 H         1 <0>         0.0377
     50 H30        -4.1243   -0.9623   -1.2376 H         1 <0>         0.0377
     51 H31        -1.4346   -1.9269    1.9117 H         1 <0>         0.0230
     52 H32        -0.4296   -1.3221    3.2396 H         1 <0>         0.0230
     53 H33        -0.0997   -0.8017    1.5860 H         1 <0>         0.0230
     54 H34        -7.5846   -1.2553   -1.3399 H         1 <0>         0.2951
@<TRIPOS>BOND
     1    1   20 1
     2    1   54 1
     3    2   20 2
     4    3    4 1
     5    3    5 1
     6    3   21 1
     7    3   22 1
     8    4    8 1
     9    4   23 1
    10    4   24 1
    11    5   11 1
    12    5   25 1
    13    5   26 1
    14    6    7 1
    15    6    9 1
    16    6   27 1
    17    6   28 1
    18    7   10 1
    19    7   29 1
    20    7   30 1
    21    8   12 1
    22    8   31 1
    23    8   32 1
    24    9   13 1
    25    9   33 1
    26    9   34 1
    27   10   14 1
    28   10   35 1
    29   10   36 1
    30   11   15 1
    31   11   37 1
    32   11   38 1
    33   12   16 1
    34   12   39 1
    35   12   40 1
    36   13   17 1
    37   13   41 1
    38   13   42 1
    39   14   18 1
    40   14   43 1
    41   14   44 1
    42   15   19 1
    43   15   45 1
    44   15   46 1
    45   16   17 2
    46   16   47 1
    47   17   48 1
    48   18   20 1
    49   18   49 1
    50   18   50 1
    51   19   51 1
    52   19   52 1
    53   19   53 1
