@<TRIPOS>MOLECULE
DB04838
   44    45     0     0     0
SMALL
USER_CHARGES

@<TRIPOS>ATOM
      1 O1          0.6165   -1.5184    1.0756 O.3       1 <0>        -0.4593
      2 O2          1.1865   -0.3255    2.9653 O.2       1 <0>        -0.2475
      3 O3          3.8115   -0.5732    2.4178 O.3       1 <0>        -0.3762
      4 C1         -1.8096    1.2807    0.2244 C.3       1 <0>        -0.0313
      5 C2         -2.6744    0.4329   -0.7384 C.3       1 <0>        -0.0450
      6 C3         -2.8605   -1.0231   -0.2796 C.3       1 <0>        -0.0401
      7 C4         -0.4768    0.5557    0.5081 C.3       1 <0>        -0.0105
      8 C5         -0.6590   -0.8915    0.9689 C.3       1 <0>         0.1039
      9 C6         -1.5057   -1.6891   -0.0194 C.3       1 <0>        -0.0130
     10 C7         -1.5086    2.6381   -0.4391 C.3       1 <0>        -0.0597
     11 C8         -2.5677    1.5548    1.5376 C.3       1 <0>        -0.0597
     12 C9         -3.6551   -1.8144   -1.3187 C.3       1 <0>        -0.0623
     13 C10         1.4941   -0.9369    1.9498 C.2       1 <0>         0.3409
     14 C11         2.9175   -1.1298    1.4648 C.3       1 <0>         0.1767
     15 C12         3.1700   -0.4789    0.1271 C.ar      1 <0>        -0.0084
     16 C13         2.9557   -1.2054   -1.0339 C.ar      1 <0>        -0.0556
     17 C14         3.6122    0.8341    0.0826 C.ar      1 <0>        -0.0556
     18 C15         3.1894   -0.6036   -2.2704 C.ar      1 <0>        -0.0614
     19 C16         3.8459    1.4358   -1.1540 C.ar      1 <0>        -0.0614
     20 C17         3.6344    0.7169   -2.3305 C.ar      1 <0>        -0.0617
     21 H1         -2.2045    0.4297   -1.7320 H         1 <0>         0.0273
     22 H2         -3.6578    0.9037   -0.8675 H         1 <0>         0.0273
     23 H3         -3.4394   -1.0330    0.6519 H         1 <0>         0.0299
     24 H4          0.0982    1.1363    1.2390 H         1 <0>         0.0306
     25 H5          0.1394    0.5552   -0.4023 H         1 <0>         0.0306
     26 H6         -1.1433   -0.9273    1.9523 H         1 <0>         0.0734
     27 H7         -1.6492   -2.7074    0.3642 H         1 <0>         0.0303
     28 H8         -0.9524   -1.8074   -0.9612 H         1 <0>         0.0303
     29 H9         -2.4328    3.1836   -0.6612 H         1 <0>         0.0235
     30 H10        -0.8951    3.2701    0.2129 H         1 <0>         0.0235
     31 H11        -0.9651    2.5082   -1.3818 H         1 <0>         0.0235
     32 H12        -3.5057    2.0876    1.3441 H         1 <0>         0.0235
     33 H13        -2.8193    0.6376    2.0774 H         1 <0>         0.0235
     34 H14        -1.9684    2.1761    2.2130 H         1 <0>         0.0235
     35 H15        -4.6370   -1.3591   -1.4851 H         1 <0>         0.0232
     36 H16        -3.1310   -1.8504   -2.2798 H         1 <0>         0.0232
     37 H17        -3.8160   -2.8440   -0.9822 H         1 <0>         0.0232
     38 H18         3.1319   -2.2040    1.4190 H         1 <0>         0.0762
     39 H19         3.7245   -1.0891    3.2377 H         1 <0>         0.2110
     40 H20         2.6091   -2.2342   -0.9982 H         1 <0>         0.0621
     41 H21         3.7696    1.4207    0.9828 H         1 <0>         0.0621
     42 H22         3.0241   -1.1632   -3.1864 H         1 <0>         0.0618
     43 H23         4.1887    2.4654   -1.2012 H         1 <0>         0.0618
     44 H24         3.8151    1.1857   -3.2933 H         1 <0>         0.0618
@<TRIPOS>BOND
     1    1    8 1
     2    1   13 1
     3    2   13 2
     4    3   14 1
     5    3   39 1
     6    4    5 1
     7    4    7 1
     8    4   10 1
     9    4   11 1
    10    5    6 1
    11    5   21 1
    12    5   22 1
    13    6    9 1
    14    6   12 1
    15    6   23 1
    16    7    8 1
    17    7   24 1
    18    7   25 1
    19    8    9 1
    20    8   26 1
    21    9   27 1
    22    9   28 1
    23   10   29 1
    24   10   30 1
    25   10   31 1
    26   11   32 1
    27   11   33 1
    28   11   34 1
    29   12   35 1
    30   12   36 1
    31   12   37 1
    32   13   14 1
    33   14   15 1
    34   14   38 1
    35   15   16 ar
    36   15   17 ar
    37   16   18 ar
    38   16   40 1
    39   17   19 ar
    40   17   41 1
    41   18   20 ar
    42   18   42 1
    43   19   20 ar
    44   19   43 1
    45   20   44 1
