@<TRIPOS>MOLECULE
DB04930
   46    48     0     0     0
SMALL
USER_CHARGES

@<TRIPOS>ATOM
      1 Cl1        -2.5654    4.3901    0.3505 Cl        1 <0>        -0.0708
      2 Cl2        -2.6332    2.3312    2.4647 Cl        1 <0>        -0.0708
      3 O1         -0.4296   -1.5844   -0.8316 O.3       1 <0>        -0.4596
      4 O2         -2.1014   -2.7202   -1.9560 O.2       1 <0>        -0.2505
      5 O3          4.1561    0.4137   -0.2131 O.3       1 <0>        -0.4560
      6 C1         -3.4385   -0.5051    0.0747 C.3       1 <0>        -0.0143
      7 C2         -2.1994    0.3404    0.0393 C.3       1 <0>        -0.0011
      8 C3         -2.5333   -0.5503   -1.1145 C.3       1 <0>         0.0689
      9 C4         -4.7511    0.1965   -0.0266 C.3       1 <0>        -0.0585
     10 C5         -3.4845   -1.7192    0.9419 C.3       1 <0>        -0.0585
     11 C6         -2.2952    1.7800   -0.1507 C.2       1 <0>        -0.0499
     12 C7         -1.6802   -1.7423   -1.3549 C.2       1 <0>         0.3116
     13 C8         -2.4770    2.7198    0.7894 C.2       1 <0>         0.1029
     14 C9          0.4590   -2.6799   -1.0143 C.3       1 <0>         0.1176
     15 C10         1.7756   -2.3588   -0.3920 C.ar      1 <0>        -0.0068
     16 C11         2.3571   -1.1074   -0.5962 C.ar      1 <0>        -0.0129
     17 C12         2.4255   -3.3098    0.3947 C.ar      1 <0>        -0.0551
     18 C13         3.5884   -0.8071   -0.0137 C.ar      1 <0>         0.1288
     19 C14         3.6569   -3.0095    0.9771 C.ar      1 <0>        -0.0579
     20 C15         4.2384   -1.7581    0.7729 C.ar      1 <0>        -0.0193
     21 C16         3.3431    1.5285   -0.0955 C.ar      1 <0>         0.1284
     22 C17         2.4690    1.6154    0.9730 C.ar      1 <0>        -0.0193
     23 C18         3.4259    2.5265   -1.0496 C.ar      1 <0>        -0.0193
     24 C19         1.6502    2.7384    1.0915 C.ar      1 <0>        -0.0583
     25 C20         2.6070    3.6494   -0.9311 C.ar      1 <0>        -0.0583
     26 C21         1.7191    3.7554    0.1394 C.ar      1 <0>        -0.0615
     27 H1         -1.3955    0.0508    0.7092 H         1 <0>         0.0357
     28 H2         -2.9012   -0.0926   -2.0284 H         1 <0>         0.0425
     29 H3         -5.0194    0.6632    0.9271 H         1 <0>         0.0235
     30 H4         -4.7720    0.9685   -0.8036 H         1 <0>         0.0235
     31 H5         -5.5431   -0.5179   -0.2790 H         1 <0>         0.0235
     32 H6         -3.9611   -1.4854    1.9005 H         1 <0>         0.0235
     33 H7         -4.0659   -2.5147    0.4633 H         1 <0>         0.0235
     34 H8         -2.4910   -2.1174    1.1747 H         1 <0>         0.0235
     35 H9         -2.1926    2.1204   -1.1808 H         1 <0>         0.0598
     36 H10         0.0191   -3.5721   -0.5526 H         1 <0>         0.0749
     37 H11         0.6041   -2.8689   -2.0848 H         1 <0>         0.0749
     38 H12         1.8571   -0.3853   -1.2375 H         1 <0>         0.0658
     39 H13         1.9854   -4.2893    0.5616 H         1 <0>         0.0621
     40 H14         4.1631   -3.7499    1.5894 H         1 <0>         0.0619
     41 H15         5.1975   -1.5298    1.2294 H         1 <0>         0.0654
     42 H16         2.4125    0.8484    1.7398 H         1 <0>         0.0654
     43 H17         4.1163    2.4451   -1.8837 H         1 <0>         0.0654
     44 H18         0.9618    2.8231    1.9272 H         1 <0>         0.0619
     45 H19         2.6604    4.4412   -1.6727 H         1 <0>         0.0619
     46 H20         1.0817    4.6297    0.2320 H         1 <0>         0.0618
@<TRIPOS>BOND
     1    1   13 1
     2    2   13 1
     3    3   12 1
     4    3   14 1
     5    4   12 2
     6    5   18 1
     7    5   21 1
     8    6    7 1
     9    6    8 1
    10    6    9 1
    11    6   10 1
    12    7    8 1
    13    7   11 1
    14    7   27 1
    15    8   12 1
    16    8   28 1
    17    9   29 1
    18    9   30 1
    19    9   31 1
    20   10   32 1
    21   10   33 1
    22   10   34 1
    23   11   13 2
    24   11   35 1
    25   14   15 1
    26   14   36 1
    27   14   37 1
    28   15   16 ar
    29   15   17 ar
    30   16   18 ar
    31   16   38 1
    32   17   19 ar
    33   17   39 1
    34   18   20 ar
    35   19   20 ar
    36   19   40 1
    37   20   41 1
    38   21   22 ar
    39   21   23 ar
    40   22   24 ar
    41   22   42 1
    42   23   25 ar
    43   23   43 1
    44   24   26 ar
    45   24   44 1
    46   25   26 ar
    47   25   45 1
    48   26   46 1
