@<TRIPOS>MOLECULE
DB04871
   27    28     0     0     0
SMALL
USER_CHARGES

@<TRIPOS>ATOM
      1 Cl1         4.2170    1.7364   -0.7878 Cl        1 <0>        -0.0835
      2 N1         -2.4154   -0.8359   -0.2429 N.3       1 <0>        -0.3151
      3 C1         -0.8554    1.0253    0.4402 C.3       1 <0>        -0.0059
      4 C2          0.5386    0.4456    0.2107 C.ar      1 <0>        -0.0387
      5 C3         -1.8667    0.4767   -0.5909 C.3       1 <0>         0.0025
      6 C4          0.7584   -0.9419    0.3613 C.ar      1 <0>        -0.0426
      7 C5         -0.3632   -1.8860    0.7213 C.3       1 <0>        -0.0148
      8 C6         -1.4563   -1.9331   -0.3459 C.3       1 <0>        -0.0001
      9 C7         -0.9210    2.5620    0.4317 C.3       1 <0>        -0.0572
     10 C8          1.6333    1.2534   -0.1491 C.ar      1 <0>        -0.0396
     11 C9          2.0466   -1.4731    0.1673 C.ar      1 <0>        -0.0569
     12 C10         2.9060    0.7118   -0.3431 C.ar      1 <0>         0.0413
     13 C11         3.1137   -0.6511   -0.1827 C.ar      1 <0>        -0.0431
     14 H1         -1.1684    0.7320    1.4523 H         1 <0>         0.0359
     15 H2         -2.7286    1.1541   -0.6345 H         1 <0>         0.0430
     16 H3         -1.4400    0.4622   -1.6022 H         1 <0>         0.0430
     17 H4          0.0380   -2.9014    0.8369 H         1 <0>         0.0326
     18 H5         -0.7710   -1.6221    1.7053 H         1 <0>         0.0326
     19 H6         -1.0340   -1.9901   -1.3569 H         1 <0>         0.0427
     20 H7         -2.0238   -2.8593   -0.1942 H         1 <0>         0.0427
     21 H8         -3.1963   -1.0331   -0.8695 H         1 <0>         0.1220
     22 H9         -0.2311    2.9940    1.1651 H         1 <0>         0.0236
     23 H10        -0.6836    2.9736   -0.5556 H         1 <0>         0.0236
     24 H11        -1.9277    2.9045    0.6975 H         1 <0>         0.0236
     25 H12         1.5084    2.3241   -0.2871 H         1 <0>         0.0635
     26 H13         2.2253   -2.5396    0.2828 H         1 <0>         0.0621
     27 H14         4.0972   -1.0890   -0.3298 H         1 <0>         0.0632
@<TRIPOS>BOND
     1    1   12 1
     2    2    5 1
     3    2    8 1
     4    2   21 1
     5    3    4 1
     6    3    5 1
     7    3    9 1
     8    3   14 1
     9    4    6 ar
    10    4   10 ar
    11    5   15 1
    12    5   16 1
    13    6    7 1
    14    6   11 ar
    15    7    8 1
    16    7   17 1
    17    7   18 1
    18    8   19 1
    19    8   20 1
    20    9   22 1
    21    9   23 1
    22    9   24 1
    23   10   12 ar
    24   10   25 1
    25   11   13 ar
    26   11   26 1
    27   12   13 ar
    28   13   27 1
