@<TRIPOS>MOLECULE
DB04880
   29    30     0     0     0
SMALL
USER_CHARGES

@<TRIPOS>ATOM
      1 S1          4.8114   -0.6855    0.3756 S.3       1 <0>        -0.1286
      2 O1         -1.6860   -2.2186   -0.3708 O.2       1 <0>        -0.2850
      3 O2         -2.3886    3.4623    0.5604 O.2       1 <0>        -0.2468
      4 N1         -1.4453    1.3044    0.2610 N.am      1 <0>        -0.3033
      5 N2         -3.6689    1.5079    0.1351 N.am      1 <0>        -0.3099
      6 C1         -1.9987    0.0730    0.0127 C.2       1 <0>         0.1101
      7 C2         -3.3341    0.1852   -0.0647 C.2       1 <0>         0.0445
      8 C3         -1.1781   -1.1167   -0.1284 C.2       1 <0>         0.2110
      9 C4          0.3055   -1.0099   -0.0035 C.ar      1 <0>         0.0239
     10 C5         -2.4864    2.2641    0.3489 C.2       1 <0>         0.3248
     11 C6         -4.3936   -0.8214   -0.3103 C.3       1 <0>        -0.0222
     12 C7          0.8747   -1.1628    1.2398 C.ar      1 <0>        -0.0498
     13 C8          1.0459   -0.7626   -1.1366 C.ar      1 <0>        -0.0498
     14 C9          3.0399   -0.8129    0.2266 C.ar      1 <0>         0.0077
     15 C10         2.2612   -1.0629    1.3564 C.ar      1 <0>        -0.0477
     16 C11         2.4324   -0.6628   -1.0199 C.ar      1 <0>        -0.0477
     17 C12         5.0441    1.0006   -0.2290 C.3       1 <0>        -0.0135
     18 H1         -0.4566    1.4954    0.3653 H         1 <0>         0.1705
     19 H2         -4.6155    1.8678    0.1283 H         1 <0>         0.1701
     20 H3         -4.0145   -1.8381   -0.4232 H         1 <0>         0.0292
     21 H4         -4.9452   -0.5734   -1.2233 H         1 <0>         0.0292
     22 H5         -5.1051   -0.8307    0.5224 H         1 <0>         0.0292
     23 H6          0.2720   -1.3576    2.1216 H         1 <0>         0.0625
     24 H7          0.5769   -0.6473   -2.1091 H         1 <0>         0.0625
     25 H8          2.7168   -1.1825    2.3364 H         1 <0>         0.0629
     26 H9          3.0184   -0.4771   -1.9164 H         1 <0>         0.0629
     27 H10         6.0913    1.2861   -0.0953 H         1 <0>         0.0344
     28 H11         4.4215    1.7021    0.3332 H         1 <0>         0.0344
     29 H12         4.8046    1.0740   -1.2930 H         1 <0>         0.0344
@<TRIPOS>BOND
     1    1   14 1
     2    1   17 1
     3    2    8 2
     4    3   10 2
     5    4    6 2
     6    4   10 am
     7    4   18 1
     8    5    7 2
     9    5   10 am
    10    5   19 1
    11    6    7 1
    12    6    8 1
    13    7   11 1
    14    8    9 1
    15    9   12 ar
    16    9   13 ar
    17   11   20 1
    18   11   21 1
    19   11   22 1
    20   12   15 ar
    21   12   23 1
    22   13   16 ar
    23   13   24 1
    24   14   15 ar
    25   14   16 ar
    26   15   25 1
    27   16   26 1
    28   17   27 1
    29   17   28 1
    30   17   29 1
