@<TRIPOS>MOLECULE
DB04825
   52    54     0     0     0
SMALL
USER_CHARGES

@<TRIPOS>ATOM
      1 N1         -1.2646    1.5058    0.2724 N.3       1 <0>        -0.3132
      2 C1          1.4918    0.3762    0.0796 C.3       1 <0>         0.0104
      3 C2          1.1215    1.8654   -0.1484 C.3       1 <0>        -0.0296
      4 C3         -0.3058    2.0413   -0.6793 C.3       1 <0>        -0.0030
      5 C4         -2.6335    1.6711   -0.2254 C.3       1 <0>         0.0088
      6 C5          1.3426   -0.4775   -1.1762 C.ar      1 <0>        -0.0399
      7 C6          2.8586    0.1773    0.7224 C.ar      1 <0>        -0.0399
      8 C7         -3.6212    1.0178    0.7585 C.3       1 <0>        -0.0125
      9 C8         -2.8987    3.1647   -0.4163 C.3       1 <0>        -0.0494
     10 C9         -3.3645   -0.4528    0.9858 C.ar      1 <0>        -0.0459
     11 C10         0.1317   -1.0872   -1.4235 C.ar      1 <0>        -0.0580
     12 C11         3.0623   -0.9259    1.5246 C.ar      1 <0>        -0.0580
     13 C12         2.4235   -0.6095   -2.0208 C.ar      1 <0>        -0.0580
     14 C13         3.8490    1.1065    0.4815 C.ar      1 <0>        -0.0580
     15 C14        -3.9851   -1.3845    0.1690 C.ar      1 <0>        -0.0585
     16 C15        -2.5129   -0.8437    2.0067 C.ar      1 <0>        -0.0585
     17 C16        -0.0049   -1.8675   -2.5715 C.ar      1 <0>        -0.0615
     18 C17         4.3139   -1.1084    2.1131 C.ar      1 <0>        -0.0615
     19 C18         2.2866   -1.3898   -3.1690 C.ar      1 <0>        -0.0615
     20 C19         5.1005    0.9238    1.0700 C.ar      1 <0>        -0.0615
     21 C20         1.0724   -2.0187   -3.4442 C.ar      1 <0>        -0.0617
     22 C21         5.3328   -0.1836    1.8857 C.ar      1 <0>        -0.0617
     23 C22        -3.7480   -2.7429    0.3786 C.ar      1 <0>        -0.0615
     24 C23        -2.2757   -2.2023    2.2162 C.ar      1 <0>        -0.0615
     25 C24        -2.8933   -3.1518    1.4021 C.ar      1 <0>        -0.0617
     26 H1          0.7791   -0.0089    0.8248 H         1 <0>         0.0398
     27 H2          1.7855    2.3219   -0.8927 H         1 <0>         0.0286
     28 H3          1.2435    2.4314    0.7848 H         1 <0>         0.0286
     29 H4         -0.4155    1.5878   -1.6699 H         1 <0>         0.0424
     30 H5         -0.4277    3.1216   -0.8106 H         1 <0>         0.0424
     31 H6         -2.7363    1.1634   -1.1935 H         1 <0>         0.0461
     32 H7         -1.1596    1.9727    1.1727 H         1 <0>         0.1222
     33 H8         -4.6467    1.1498    0.3880 H         1 <0>         0.0328
     34 H9         -3.5970    1.5419    1.7243 H         1 <0>         0.0328
     35 H10        -2.4041    3.5712   -1.3040 H         1 <0>         0.0245
     36 H11        -2.6010    3.7532    0.4591 H         1 <0>         0.0245
     37 H12        -3.9714    3.3353   -0.5661 H         1 <0>         0.0245
     38 H13        -0.7091   -0.9985   -0.7458 H         1 <0>         0.0620
     39 H14         2.2757   -1.6521    1.7060 H         1 <0>         0.0620
     40 H15         3.3749   -0.1176   -1.8585 H         1 <0>         0.0620
     41 H16         3.7179    1.9712   -0.1576 H         1 <0>         0.0620
     42 H17        -4.6499   -1.0755   -0.6326 H         1 <0>         0.0620
     43 H18        -2.0298   -0.1146    2.6507 H         1 <0>         0.0620
     44 H19        -0.9492   -2.3609   -2.7830 H         1 <0>         0.0618
     45 H20         4.4951   -1.9710    2.7476 H         1 <0>         0.0618
     46 H21         3.1234   -1.5033   -3.8520 H         1 <0>         0.0618
     47 H22         5.8957    1.6414    0.8901 H         1 <0>         0.0618
     48 H23         0.9658   -2.6260   -4.3382 H         1 <0>         0.0618
     49 H24         6.3076   -0.3263    2.3427 H         1 <0>         0.0618
     50 H25        -4.2277   -3.4821   -0.2561 H         1 <0>         0.0618
     51 H26        -1.6103   -2.5208    3.0133 H         1 <0>         0.0618
     52 H27        -2.7081   -4.2094    1.5649 H         1 <0>         0.0618
@<TRIPOS>BOND
     1    1    4 1
     2    1    5 1
     3    1   32 1
     4    2    3 1
     5    2    6 1
     6    2    7 1
     7    2   26 1
     8    3    4 1
     9    3   27 1
    10    3   28 1
    11    4   29 1
    12    4   30 1
    13    5    8 1
    14    5    9 1
    15    5   31 1
    16    6   11 ar
    17    6   13 ar
    18    7   12 ar
    19    7   14 ar
    20    8   10 1
    21    8   33 1
    22    8   34 1
    23    9   35 1
    24    9   36 1
    25    9   37 1
    26   10   15 ar
    27   10   16 ar
    28   11   17 ar
    29   11   38 1
    30   12   18 ar
    31   12   39 1
    32   13   19 ar
    33   13   40 1
    34   14   20 ar
    35   14   41 1
    36   15   23 ar
    37   15   42 1
    38   16   24 ar
    39   16   43 1
    40   17   21 ar
    41   17   44 1
    42   18   22 ar
    43   18   45 1
    44   19   21 ar
    45   19   46 1
    46   20   22 ar
    47   20   47 1
    48   21   48 1
    49   22   49 1
    50   23   25 ar
    51   23   50 1
    52   24   25 ar
    53   24   51 1
    54   25   52 1
