@<TRIPOS>MOLECULE
DB04847
   42    44     0     0     0
SMALL
USER_CHARGES

@<TRIPOS>ATOM
      1 O1          3.7976   -1.4223    0.8890 O.3       1 <0>        -0.4560
      2 O2         -2.3041   -2.9843   -0.2677 O.3       1 <0>        -0.5039
      3 O3         -4.5449   -1.6223    0.1328 O.2       1 <0>        -0.2684
      4 O4         -5.8006    1.5632    1.1938 O.3       1 <0>        -0.4795
      5 O5         -7.7966    1.4709    0.1187 O.2       1 <0>        -0.2492
      6 N1         -1.9004    0.5946    0.2755 N.ar      1 <0>        -0.2431
      7 N2         -4.4250    0.5131   -0.7631 N.am      1 <0>        -0.2995
      8 C1          0.2780   -0.4689    0.4706 C.ar      1 <0>         0.0101
      9 C2         -0.3068   -1.7255    0.2109 C.ar      1 <0>         0.0278
     10 C3         -0.5662    0.6431    0.4892 C.ar      1 <0>         0.0471
     11 C4         -1.6866   -1.7973   -0.0130 C.ar      1 <0>         0.1549
     12 C5          1.6611   -0.3756    0.6978 C.ar      1 <0>        -0.0098
     13 C6         -2.4253   -0.6248    0.0301 C.ar      1 <0>         0.1675
     14 C7          0.5107   -2.8673    0.1842 C.ar      1 <0>        -0.0469
     15 C8          2.4580   -1.5197    0.6675 C.ar      1 <0>         0.1291
     16 C9          1.8841   -2.7628    0.4114 C.ar      1 <0>        -0.0186
     17 C10        -0.0353    2.0159    0.7561 C.3       1 <0>        -0.0217
     18 C11        -3.8635   -0.6352   -0.1939 C.2       1 <0>         0.2665
     19 C12         4.4836   -0.4050    0.2472 C.ar      1 <0>         0.1284
     20 C13        -5.8381    0.6645   -1.0253 C.3       1 <0>         0.1091
     21 C14         4.2375   -0.1674   -1.0930 C.ar      1 <0>        -0.0193
     22 C15         5.3980    0.3468    0.9625 C.ar      1 <0>        -0.0193
     23 C16         4.9293    0.8567   -1.7398 C.ar      1 <0>        -0.0583
     24 C17         6.0896    1.3711    0.3159 C.ar      1 <0>        -0.0583
     25 C18         5.8553    1.6259   -1.0354 C.ar      1 <0>        -0.0615
     26 C19        -6.5887    1.2672    0.1342 C.2       1 <0>         0.3221
     27 H1          2.1157    0.5851    0.9255 H         1 <0>         0.0661
     28 H2          0.0943   -3.8526   -0.0130 H         1 <0>         0.0626
     29 H3          2.5014   -3.6567    0.3867 H         1 <0>         0.0654
     30 H4          0.7013    2.3017   -0.0016 H         1 <0>         0.0293
     31 H5         -0.8402    2.7587    0.7235 H         1 <0>         0.0293
     32 H6          0.4175    2.0705    1.7514 H         1 <0>         0.0293
     33 H7         -3.8157    1.2947   -0.9877 H         1 <0>         0.1496
     34 H8         -3.2326   -2.8495   -0.5133 H         1 <0>         0.2923
     35 H9         -6.2697   -0.3154   -1.2490 H         1 <0>         0.0577
     36 H10        -5.9378    1.3279   -1.8889 H         1 <0>         0.0577
     37 H11         3.5394   -0.7672   -1.6695 H         1 <0>         0.0654
     38 H12         5.5812    0.1497    2.0144 H         1 <0>         0.0654
     39 H13         4.7509    1.0518   -2.7934 H         1 <0>         0.0619
     40 H14         6.8108    1.9699    0.8643 H         1 <0>         0.0619
     41 H15         6.3948    2.4226   -1.5393 H         1 <0>         0.0618
     42 H16        -6.3120    1.9541    1.9341 H         1 <0>         0.2951
@<TRIPOS>BOND
     1    1   15 1
     2    1   19 1
     3    2   11 1
     4    2   34 1
     5    3   18 2
     6    4   26 1
     7    4   42 1
     8    5   26 2
     9    6   10 ar
    10    6   13 ar
    11    7   18 am
    12    7   20 1
    13    7   33 1
    14    8    9 ar
    15    8   10 ar
    16    8   12 ar
    17    9   11 ar
    18    9   14 ar
    19   10   17 1
    20   11   13 ar
    21   12   15 ar
    22   12   27 1
    23   13   18 1
    24   14   16 ar
    25   14   28 1
    26   15   16 ar
    27   16   29 1
    28   17   30 1
    29   17   31 1
    30   17   32 1
    31   19   21 ar
    32   19   22 ar
    33   20   26 1
    34   20   35 1
    35   20   36 1
    36   21   23 ar
    37   21   37 1
    38   22   24 ar
    39   22   38 1
    40   23   25 ar
    41   23   39 1
    42   24   25 ar
    43   24   40 1
    44   25   41 1
