@<TRIPOS>MOLECULE
DB04822
   57    57     0     0     0
SMALL
USER_CHARGES

@<TRIPOS>ATOM
      1 O1         -1.3211   -1.7230    0.4659 O.3       1 <0>        -0.4617
      2 O2         -3.2565   -1.8400    1.7059 O.2       1 <0>        -0.2498
      3 O3          1.4074   -2.1776    0.7980 O.3       1 <0>        -0.3752
      4 N1          3.1128   -0.0682   -0.0500 N.3       1 <0>        -0.3007
      5 C1         -2.9492   -0.0013    0.1023 C.3       1 <0>         0.0921
      6 C2         -4.3441    0.4753    0.6238 C.3       1 <0>        -0.0360
      7 C3         -3.0237   -0.3866   -1.4114 C.3       1 <0>        -0.0360
      8 C4         -1.8991    1.0908    0.4129 C.ar      1 <0>        -0.0306
      9 C5         -2.5549   -1.2878    0.8667 C.2       1 <0>         0.3178
     10 C6         -4.8622    1.7728    0.0103 C.3       1 <0>        -0.0640
     11 C7         -4.0473   -1.4623   -1.7693 C.3       1 <0>        -0.0640
     12 C8         -1.1547    1.6573   -0.6220 C.ar      1 <0>        -0.0575
     13 C9         -1.6957    1.5090    1.7280 C.ar      1 <0>        -0.0575
     14 C10        -0.8498   -2.9168    1.0984 C.3       1 <0>         0.1157
     15 C11        -0.2074    2.6421   -0.3416 C.ar      1 <0>        -0.0615
     16 C12        -0.7485    2.4938    2.0082 C.ar      1 <0>        -0.0615
     17 C13         3.6088   -1.2613    0.6197 C.3       1 <0>         0.0223
     18 C14         0.5205   -3.2610    0.5471 C.3       1 <0>         0.0819
     19 C15         2.7163   -2.4551    0.3204 C.3       1 <0>         0.0605
     20 C16        -0.0044    3.0603    0.9736 C.ar      1 <0>        -0.0617
     21 C17         3.4742   -0.0827   -1.4696 C.3       1 <0>        -0.0039
     22 C18         3.6341    1.1410    0.5919 C.3       1 <0>        -0.0039
     23 C19         2.9024    1.1243   -2.1939 C.3       1 <0>        -0.0524
     24 C20         5.1482    1.2096    0.4859 C.3       1 <0>        -0.0524
     25 H1         -4.3196    0.6098    1.7132 H         1 <0>         0.0276
     26 H2         -5.0953   -0.3079    0.4651 H         1 <0>         0.0276
     27 H3         -2.0469   -0.7488   -1.7591 H         1 <0>         0.0276
     28 H4         -3.2589    0.4964   -2.0184 H         1 <0>         0.0276
     29 H5         -5.8392    2.0193    0.4399 H         1 <0>         0.0230
     30 H6         -4.9943    1.6809   -1.0712 H         1 <0>         0.0230
     31 H7         -4.1953    2.6162    0.2095 H         1 <0>         0.0230
     32 H8         -3.9603   -1.7139   -2.8319 H         1 <0>         0.0230
     33 H9         -5.0715   -1.1176   -1.6031 H         1 <0>         0.0230
     34 H10        -3.8892   -2.3821   -1.1990 H         1 <0>         0.0230
     35 H11        -1.2693    1.3715   -1.6611 H         1 <0>         0.0621
     36 H12        -2.2532    1.0746    2.5528 H         1 <0>         0.0621
     37 H13        -1.5488   -3.7379    0.9061 H         1 <0>         0.0721
     38 H14        -0.7789   -2.7341    2.1769 H         1 <0>         0.0721
     39 H15         3.5871   -1.1139    1.7077 H         1 <0>         0.0449
     40 H16         4.6407   -1.5078    0.3418 H         1 <0>         0.0449
     41 H17         0.3699    3.0878   -1.1463 H         1 <0>         0.0618
     42 H18        -0.5878    2.8173    3.0325 H         1 <0>         0.0618
     43 H19         0.8965   -4.1729    1.0236 H         1 <0>         0.0594
     44 H20         0.4530   -3.4176   -0.5358 H         1 <0>         0.0594
     45 H21         3.1097   -3.3313    0.8504 H         1 <0>         0.0572
     46 H22         2.6894   -2.6978   -0.7469 H         1 <0>         0.0572
     47 H23         0.7341    3.8262    1.1918 H         1 <0>         0.0618
     48 H24         3.0222   -0.9586   -1.9489 H         1 <0>         0.0424
     49 H25         4.5506   -0.1697   -1.6554 H         1 <0>         0.0424
     50 H26         3.3482    1.1394    1.6519 H         1 <0>         0.0424
     51 H27         3.1756    2.0515    0.1923 H         1 <0>         0.0424
     52 H28         3.0180    0.9874   -3.2753 H         1 <0>         0.0242
     53 H29         3.4150    2.0570   -1.9424 H         1 <0>         0.0242
     54 H30         1.8324    1.2380   -1.9990 H         1 <0>         0.0242
     55 H31         5.6583    0.3451    0.9193 H         1 <0>         0.0242
     56 H32         5.5050    1.3600   -0.5367 H         1 <0>         0.0242
     57 H33         5.4965    2.0807    1.0542 H         1 <0>         0.0242
@<TRIPOS>BOND
     1    1    9 1
     2    1   14 1
     3    2    9 2
     4    3   18 1
     5    3   19 1
     6    4   17 1
     7    4   21 1
     8    4   22 1
     9    5    6 1
    10    5    7 1
    11    5    8 1
    12    5    9 1
    13    6   10 1
    14    6   25 1
    15    6   26 1
    16    7   11 1
    17    7   27 1
    18    7   28 1
    19    8   12 ar
    20    8   13 ar
    21   10   29 1
    22   10   30 1
    23   10   31 1
    24   11   32 1
    25   11   33 1
    26   11   34 1
    27   12   15 ar
    28   12   35 1
    29   13   16 ar
    30   13   36 1
    31   14   18 1
    32   14   37 1
    33   14   38 1
    34   15   20 ar
    35   15   41 1
    36   16   20 ar
    37   16   42 1
    38   17   19 1
    39   17   39 1
    40   17   40 1
    41   18   43 1
    42   18   44 1
    43   19   45 1
    44   19   46 1
    45   20   47 1
    46   21   23 1
    47   21   48 1
    48   21   49 1
    49   22   24 1
    50   22   50 1
    51   22   51 1
    52   23   52 1
    53   23   53 1
    54   23   54 1
    55   24   55 1
    56   24   56 1
    57   24   57 1
