@<TRIPOS>MOLECULE
DB04946
   58    61     0     0     0
SMALL
USER_CHARGES

@<TRIPOS>ATOM
      1 F1          8.7867   -2.4875   -0.0371 F         1 <0>        -0.2054
      2 O1          4.0965   -2.7225    1.0010 O.3       1 <0>        -0.3543
      3 O2         -3.2364    1.9472    0.5058 O.3       1 <0>        -0.4883
      4 O3         -2.9093    0.2929   -1.7036 O.3       1 <0>        -0.4914
      5 O4         -5.3631   -3.8942    1.7747 O.2       1 <0>        -0.2924
      6 N1          0.1709    1.8671   -0.1429 N.3       1 <0>        -0.3022
      7 N2          3.0483   -1.8260    0.8336 N.2       1 <0>        -0.0818
      8 C1          2.7325    0.4401   -0.0572 C.3       1 <0>         0.0075
      9 C2          1.6405    0.1147   -1.0892 C.3       1 <0>        -0.0318
     10 C3          2.0978    1.0728    1.1919 C.3       1 <0>        -0.0318
     11 C4          0.7668    1.3381   -1.3773 C.3       1 <0>        -0.0005
     12 C5          1.2077    2.2615    0.8206 C.3       1 <0>        -0.0005
     13 C6         -0.7056    2.9993   -0.4426 C.3       1 <0>         0.0020
     14 C7          3.6011   -0.7537    0.2704 C.2       1 <0>         0.0945
     15 C8         -1.4146    3.4697    0.8233 C.3       1 <0>        -0.0058
     16 C9          4.9793   -0.8952    0.0537 C.ar      1 <0>         0.0447
     17 C10         5.2472   -2.1648    0.5349 C.ar      1 <0>         0.1702
     18 C11        -2.2494    2.3567    1.4424 C.3       1 <0>         0.0909
     19 C12         6.0295   -0.1326   -0.4782 C.ar      1 <0>        -0.0464
     20 C13         6.5078   -2.7551    0.5315 C.ar      1 <0>         0.0192
     21 C14         7.3132   -0.6961   -0.4977 C.ar      1 <0>        -0.0256
     22 C15         7.5455   -1.9833   -0.0016 C.ar      1 <0>         0.1270
     23 C16        -3.6284    0.6346    0.5541 C.ar      1 <0>         0.1619
     24 C17        -3.4624   -0.1872   -0.5551 C.ar      1 <0>         0.1622
     25 C18        -4.1932    0.1391    1.7244 C.ar      1 <0>        -0.0156
     26 C19        -3.8662   -1.5211   -0.4935 C.ar      1 <0>        -0.0058
     27 C20        -4.5973   -1.1945    1.7860 C.ar      1 <0>        -0.0476
     28 C21        -4.4338   -2.0246    0.6769 C.ar      1 <0>         0.0208
     29 C22        -4.8540   -3.4154    0.7417 C.2       1 <0>         0.1602
     30 C23        -3.7996    0.8520   -2.6675 C.3       1 <0>         0.0790
     31 C24        -4.6782   -4.3285   -0.4669 C.3       1 <0>        -0.0014
     32 H1          3.3820    1.2042   -0.5083 H         1 <0>         0.0366
     33 H2          2.0986   -0.2349   -2.0229 H         1 <0>         0.0284
     34 H3          1.0052   -0.7050   -0.7274 H         1 <0>         0.0284
     35 H4          1.4994    0.3285    1.7343 H         1 <0>         0.0284
     36 H5          2.8827    1.4052    1.8827 H         1 <0>         0.0284
     37 H6         -0.0253    1.0326   -2.0717 H         1 <0>         0.0427
     38 H7          1.3647    2.1070   -1.8842 H         1 <0>         0.0427
     39 H8          1.8264    3.0763    0.4219 H         1 <0>         0.0427
     40 H9          0.7823    2.6051    1.7671 H         1 <0>         0.0427
     41 H10        -1.4526    2.7122   -1.1923 H         1 <0>         0.0428
     42 H11        -0.1385    3.8359   -0.8715 H         1 <0>         0.0428
     43 H12        -0.7391    3.9119    1.5605 H         1 <0>         0.0310
     44 H13        -2.0926    4.2811    0.5257 H         1 <0>         0.0310
     45 H14        -2.7609    2.7475    2.3298 H         1 <0>         0.0697
     46 H15        -1.6194    1.5182    1.7639 H         1 <0>         0.0697
     47 H16         5.8655    0.8676   -0.8669 H         1 <0>         0.0626
     48 H17         6.6783   -3.7525    0.9179 H         1 <0>         0.0684
     49 H18         8.1416   -0.1224   -0.9054 H         1 <0>         0.0646
     50 H19        -4.3336    0.7772    2.5922 H         1 <0>         0.0655
     51 H20        -3.7222   -2.1387   -1.3752 H         1 <0>         0.0662
     52 H21        -5.0382   -1.5631    2.7085 H         1 <0>         0.0626
     53 H22        -4.3359    1.7077   -2.2456 H         1 <0>         0.0660
     54 H23        -4.5108    0.0965   -3.0163 H         1 <0>         0.0660
     55 H24        -3.2079    1.1964   -3.5201 H         1 <0>         0.0660
     56 H25        -3.6189   -4.4206   -0.7203 H         1 <0>         0.0309
     57 H26        -5.2570   -3.9509   -1.3137 H         1 <0>         0.0309
     58 H27        -5.0542   -5.3264   -0.2190 H         1 <0>         0.0309
@<TRIPOS>BOND
     1    1   22 1
     2    2    7 1
     3    2   17 1
     4    3   18 1
     5    3   23 1
     6    4   24 1
     7    4   30 1
     8    5   29 2
     9    6   11 1
    10    6   12 1
    11    6   13 1
    12    7   14 2
    13    8    9 1
    14    8   10 1
    15    8   14 1
    16    8   32 1
    17    9   11 1
    18    9   33 1
    19    9   34 1
    20   10   12 1
    21   10   35 1
    22   10   36 1
    23   11   37 1
    24   11   38 1
    25   12   39 1
    26   12   40 1
    27   13   15 1
    28   13   41 1
    29   13   42 1
    30   14   16 1
    31   15   18 1
    32   15   43 1
    33   15   44 1
    34   16   17 ar
    35   16   19 ar
    36   17   20 ar
    37   18   45 1
    38   18   46 1
    39   19   21 ar
    40   19   47 1
    41   20   22 ar
    42   20   48 1
    43   21   22 ar
    44   21   49 1
    45   23   24 ar
    46   23   25 ar
    47   24   26 ar
    48   25   27 ar
    49   25   50 1
    50   26   28 ar
    51   26   51 1
    52   27   28 ar
    53   27   52 1
    54   28   29 1
    55   29   31 1
    56   30   53 1
    57   30   54 1
    58   30   55 1
    59   31   56 1
    60   31   57 1
    61   31   58 1
