@<TRIPOS>MOLECULE
DB04572
   23    25     0     0     0
SMALL
USER_CHARGES

@<TRIPOS>ATOM
      1 S1         -0.2857    0.8766    2.3196 S.2       1 <0>        -0.0169
      2 P1         -0.0679    0.0281    0.5664 P.3       1 <0>         0.1283
      3 N1         -1.3939    0.1405   -0.4391 N.pl3     1 <0>        -0.2514
      4 N2          0.2487   -1.6090    0.6122 N.pl3     1 <0>        -0.2514
      5 N3          1.1771    0.6392   -0.3607 N.pl3     1 <0>        -0.2514
      6 C1         -2.5859   -0.5720   -0.0092 C.3       1 <0>         0.0185
      7 C2         -2.5129    0.9256    0.0561 C.3       1 <0>         0.0185
      8 C3          0.5519   -2.2386   -0.6626 C.3       1 <0>         0.0185
      9 C4          1.6245   -2.0062    0.3612 C.3       1 <0>         0.0185
     10 C5          1.0253    2.0128   -0.8112 C.3       1 <0>         0.0185
     11 C6          2.0076    1.6548    0.2654 C.3       1 <0>         0.0185
     12 H1         -2.5502   -1.1273    0.9178 H         1 <0>         0.0443
     13 H2         -3.1766   -1.0171   -0.7982 H         1 <0>         0.0443
     14 H3         -3.0510    1.4848   -0.7008 H         1 <0>         0.0443
     15 H4         -2.5532    1.3805    1.0313 H         1 <0>         0.0443
     16 H5          0.5541   -1.6391   -1.5620 H         1 <0>         0.0443
     17 H6          0.1802   -3.2474   -0.7851 H         1 <0>         0.0443
     18 H7          1.9661   -2.8646    0.9285 H         1 <0>         0.0443
     19 H8          2.4048   -1.2905    0.1585 H         1 <0>         0.0443
     20 H9          0.1346    2.5567   -0.5292 H         1 <0>         0.0443
     21 H10         1.4110    2.2281   -1.7984 H         1 <0>         0.0443
     22 H11         3.0564    1.6215   -0.0073 H         1 <0>         0.0443
     23 H12         1.8351    2.0626    1.2469 H         1 <0>         0.0443
@<TRIPOS>BOND
     1    1    2 2
     2    2    3 1
     3    2    4 1
     4    2    5 1
     5    3    6 1
     6    3    7 1
     7    4    8 1
     8    4    9 1
     9    5   10 1
    10    5   11 1
    11    6    7 1
    12    6   12 1
    13    6   13 1
    14    7   14 1
    15    7   15 1
    16    8    9 1
    17    8   16 1
    18    8   17 1
    19    9   18 1
    20    9   19 1
    21   10   11 1
    22   10   20 1
    23   10   21 1
    24   11   22 1
    25   11   23 1
