@<TRIPOS>MOLECULE
DB04865
   78    82     0     0     0
SMALL
USER_CHARGES

@<TRIPOS>ATOM
      1 O1         -0.9071    1.4120   -0.1856 O.3       1 <0>        -0.4508
      2 O2         -3.0725    3.2660   -0.8276 O.3       1 <0>        -0.4959
      3 O3          1.0502   -3.7878   -0.1528 O.3       1 <0>        -0.4526
      4 O4          0.8052   -3.7395    2.2429 O.3       1 <0>        -0.4526
      5 O5          0.4391    1.9768   -1.9672 O.2       1 <0>        -0.2476
      6 O6          0.6023    2.6978    1.4260 O.3       1 <0>        -0.3769
      7 O7          4.5235    3.4484    0.1891 O.3       1 <0>        -0.4678
      8 O8          3.4901   -2.2074   -1.9906 O.3       1 <0>        -0.3891
      9 O9          3.0821    4.1750    1.8391 O.2       1 <0>        -0.2507
     10 N1         -4.5233   -1.0989    0.4795 N.3       1 <0>        -0.2921
     11 C1         -4.0101   -0.2935   -0.6317 C.3       1 <0>         0.0542
     12 C2         -2.4645   -0.3819   -0.9148 C.3       1 <0>         0.0508
     13 C3         -4.8017   -0.9219   -1.7955 C.3       1 <0>        -0.0289
     14 C4         -1.9590    1.0807   -1.0763 C.3       1 <0>         0.1680
     15 C5         -5.9622   -1.2993    0.2835 C.3       1 <0>        -0.0002
     16 C6         -6.1777   -1.2209   -1.2203 C.3       1 <0>        -0.0382
     17 C7         -4.2710    1.1899   -0.5583 C.2       1 <0>        -0.0219
     18 C8         -1.6296   -1.2547    0.0130 C.ar      1 <0>        -0.0314
     19 C9         -4.2065   -0.6849    1.8432 C.3       1 <0>         0.0037
     20 C10        -3.1688    1.9040   -0.8000 C.2       1 <0>         0.1362
     21 C11        -2.7478   -0.3005    2.0971 C.3       1 <0>        -0.0144
     22 C12        -1.7600   -1.2222    1.4296 C.ar      1 <0>        -0.0388
     23 C13        -0.6745   -2.1121   -0.5699 C.ar      1 <0>        -0.0122
     24 C14        -0.9573   -2.0520    2.2337 C.ar      1 <0>        -0.0127
     25 C15         0.0943   -2.9083    0.2532 C.ar      1 <0>         0.1665
     26 C16        -0.0447   -2.8805    1.6172 C.ar      1 <0>         0.1665
     27 C17         0.2570    1.8539   -0.7618 C.2       1 <0>         0.3404
     28 C18         1.3073    2.1737    0.3023 C.3       1 <0>         0.1721
     29 C19        -4.3252    3.8769   -0.5601 C.3       1 <0>         0.0785
     30 C20         2.1113    0.9236    0.7172 C.3       1 <0>        -0.0129
     31 C21         1.4955   -4.3131    1.1142 C.3       1 <0>         0.2332
     32 C22         2.2102    3.2955   -0.2388 C.3       1 <0>         0.0841
     33 C23         2.8870    0.2530   -0.4287 C.3       1 <0>        -0.0473
     34 C24         3.6785   -0.9600    0.0826 C.3       1 <0>        -0.0244
     35 C25         4.4269   -1.7435   -1.0162 C.3       1 <0>         0.0605
     36 C26         3.2977    3.7042    0.7297 C.2       1 <0>         0.3101
     37 C27         5.4596   -0.8838   -1.7464 C.3       1 <0>        -0.0363
     38 C28         5.1151   -2.9684   -0.4049 C.3       1 <0>        -0.0363
     39 C29         5.6425    3.7714    1.0204 C.3       1 <0>         0.0817
     40 H1         -2.3613   -0.8361   -1.9128 H         1 <0>         0.0411
     41 H2         -4.8694   -0.2768   -2.6789 H         1 <0>         0.0287
     42 H3         -4.3439   -1.8689   -2.1132 H         1 <0>         0.0287
     43 H4         -1.6870    1.2348   -2.1283 H         1 <0>         0.0823
     44 H5         -6.2751   -2.2715    0.6782 H         1 <0>         0.0427
     45 H6         -6.5625   -0.5238    0.7753 H         1 <0>         0.0427
     46 H7         -6.8774   -0.4131   -1.4629 H         1 <0>         0.0278
     47 H8         -6.5816   -2.1528   -1.6288 H         1 <0>         0.0278
     48 H9         -5.2590    1.5733   -0.3449 H         1 <0>         0.0625
     49 H10        -4.8353    0.1581    2.1588 H         1 <0>         0.0430
     50 H11        -4.4555   -1.5219    2.5088 H         1 <0>         0.0430
     51 H12        -2.5787   -0.2882    3.1818 H         1 <0>         0.0326
     52 H13        -2.5541    0.7282    1.7772 H         1 <0>         0.0326
     53 H14        -0.5381   -2.1522   -1.6463 H         1 <0>         0.0658
     54 H15        -1.0468   -2.0428    3.3154 H         1 <0>         0.0658
     55 H16        -4.1708    4.9607   -0.5988 H         1 <0>         0.0660
     56 H17        -4.6864    3.6485    0.4496 H         1 <0>         0.0660
     57 H18        -5.0708    3.6397   -1.3278 H         1 <0>         0.0660
     58 H19         1.4170    0.1885    1.1461 H         1 <0>         0.0298
     59 H20         2.7949    1.1751    1.5379 H         1 <0>         0.0298
     60 H21         1.3343   -5.3973    1.1193 H         1 <0>         0.1166
     61 H22         2.5655   -4.1182    1.2289 H         1 <0>         0.1166
     62 H23         1.6216    4.2018   -0.4354 H         1 <0>         0.0412
     63 H24         2.6634    3.0221   -1.1991 H         1 <0>         0.0412
     64 H25         3.5789    0.9711   -0.8766 H         1 <0>         0.0267
     65 H26         2.1895   -0.0674   -1.2099 H         1 <0>         0.0267
     66 H27         0.0752    1.9771    1.8116 H         1 <0>         0.2109
     67 H28         2.9722   -1.6363    0.5785 H         1 <0>         0.0293
     68 H29         4.3918   -0.6277    0.8476 H         1 <0>         0.0293
     69 H30         4.9812   -0.0882   -2.3272 H         1 <0>         0.0257
     70 H31         6.1715   -0.4313   -1.0485 H         1 <0>         0.0257
     71 H32         6.0244   -1.4823   -2.4709 H         1 <0>         0.0257
     72 H33         5.6477   -3.5424   -1.1720 H         1 <0>         0.0257
     73 H34         5.8332   -2.6821    0.3704 H         1 <0>         0.0257
     74 H35         4.3840   -3.6539    0.0314 H         1 <0>         0.0257
     75 H36         3.9774   -2.7160   -2.6611 H         1 <0>         0.2101
     76 H37         6.5554    3.5214    0.4735 H         1 <0>         0.0661
     77 H38         5.6122    3.1811    1.9412 H         1 <0>         0.0661
     78 H39         5.6503    4.8419    1.2466 H         1 <0>         0.0661
@<TRIPOS>BOND
     1    1   14 1
     2    1   27 1
     3    2   20 1
     4    2   29 1
     5    3   25 1
     6    3   31 1
     7    4   26 1
     8    4   31 1
     9    5   27 2
    10    6   28 1
    11    6   66 1
    12    7   36 1
    13    7   39 1
    14    8   35 1
    15    8   75 1
    16    9   36 2
    17   10   11 1
    18   10   15 1
    19   10   19 1
    20   11   12 1
    21   11   13 1
    22   11   17 1
    23   12   14 1
    24   12   18 1
    25   12   40 1
    26   13   16 1
    27   13   41 1
    28   13   42 1
    29   14   20 1
    30   14   43 1
    31   15   16 1
    32   15   44 1
    33   15   45 1
    34   16   46 1
    35   16   47 1
    36   17   20 2
    37   17   48 1
    38   18   22 ar
    39   18   23 ar
    40   19   21 1
    41   19   49 1
    42   19   50 1
    43   21   22 1
    44   21   51 1
    45   21   52 1
    46   22   24 ar
    47   23   25 ar
    48   23   53 1
    49   24   26 ar
    50   24   54 1
    51   25   26 ar
    52   27   28 1
    53   28   30 1
    54   28   32 1
    55   29   55 1
    56   29   56 1
    57   29   57 1
    58   30   33 1
    59   30   58 1
    60   30   59 1
    61   31   60 1
    62   31   61 1
    63   32   36 1
    64   32   62 1
    65   32   63 1
    66   33   34 1
    67   33   64 1
    68   33   65 1
    69   34   35 1
    70   34   67 1
    71   34   68 1
    72   35   37 1
    73   35   38 1
    74   37   69 1
    75   37   70 1
    76   37   71 1
    77   38   72 1
    78   38   73 1
    79   38   74 1
    80   39   76 1
    81   39   77 1
    82   39   78 1
