@<TRIPOS>MOLECULE
DB04898
   69    71     0     0     0
SMALL
USER_CHARGES

@<TRIPOS>ATOM
      1 O1          1.2923   -1.1593   -1.3531 O.2       1 <0>        -0.2739
      2 O2         -0.8444   -3.3208    1.9919 O.2       1 <0>        -0.2738
      3 O3         -1.8131    2.2264    1.9783 O.3       1 <0>        -0.4640
      4 O4         -1.0679    3.0434   -0.0453 O.2       1 <0>        -0.2494
      5 O5         -5.3953    2.5846   -3.1481 O.3       1 <0>        -0.3111
      6 N1          1.7396   -1.8521    0.7897 N.am      1 <0>        -0.2885
      7 N2          1.0818    1.3704    0.0071 N.3       1 <0>        -0.2959
      8 N3         -0.7465   -3.7856   -0.2731 N.am      1 <0>        -0.3097
      9 N4         -6.0071    1.2538   -1.0051 N.pl3     1 <0>        -0.2430
     10 N5         -4.6287    1.4337   -2.9405 N.2       1 <0>         0.1514
     11 C1          3.3691    0.8494   -0.6973 C.3       1 <0>        -0.0171
     12 C2          2.1868    0.4413    0.1794 C.3       1 <0>         0.0882
     13 C3          3.8529    2.2595   -0.3325 C.3       1 <0>        -0.0483
     14 C4          4.5111   -0.1685   -0.5754 C.3       1 <0>        -0.0483
     15 C5          5.0691    2.6698   -1.1597 C.3       1 <0>        -0.0527
     16 C6          5.7263    0.2458   -1.4020 C.3       1 <0>        -0.0527
     17 C7          1.3326   -3.2388    0.8924 C.3       1 <0>         0.1036
     18 C8          6.1988    1.6512   -1.0429 C.3       1 <0>        -0.0530
     19 C9          2.1805   -1.7429    2.1659 C.3       1 <0>         0.0176
     20 C10         2.1126   -3.2739    2.2123 C.3       1 <0>        -0.0099
     21 C11         1.6964   -0.9262   -0.2149 C.2       1 <0>         0.2335
     22 C12        -0.1898   -3.4491    0.9521 C.2       1 <0>         0.2339
     23 C13         0.1652    1.3094    1.1387 C.3       1 <0>         0.0950
     24 C14        -0.9518    2.2990    0.9188 C.2       1 <0>         0.3211
     25 C15        -2.1597   -4.0229   -0.4622 C.3       1 <0>         0.0369
     26 C16        -2.8974   -2.7653   -0.8207 C.ar      1 <0>        -0.0303
     27 C17        -3.0460   -2.4022   -2.1594 C.ar      1 <0>        -0.0563
     28 C18        -3.4331   -1.9597    0.1841 C.ar      1 <0>        -0.0563
     29 C19        -2.9365    3.1115    1.9218 C.3       1 <0>         0.0897
     30 C20        -3.7304   -1.2335   -2.4930 C.ar      1 <0>        -0.0464
     31 C21        -4.1174   -0.7911   -0.1496 C.ar      1 <0>        -0.0464
     32 C22        -4.2661   -0.4279   -1.4881 C.ar      1 <0>         0.0693
     33 C23        -3.7862    2.9095    3.1583 C.3       1 <0>        -0.0306
     34 C24        -4.9797    0.7905   -1.8364 C.2       1 <0>         0.3624
     35 H1          3.0526    0.8641   -1.7510 H         1 <0>         0.0321
     36 H2          2.5290    0.4813    1.2175 H         1 <0>         0.0559
     37 H3          4.1132    2.3028    0.7330 H         1 <0>         0.0269
     38 H4          3.0620    3.0003   -0.4972 H         1 <0>         0.0269
     39 H5          4.1930   -1.1607   -0.9140 H         1 <0>         0.0269
     40 H6          4.8109   -0.2709    0.4755 H         1 <0>         0.0269
     41 H7          1.8113   -3.8573    0.1222 H         1 <0>         0.0597
     42 H8          4.7769    2.7722   -2.2121 H         1 <0>         0.0265
     43 H9          5.4244    3.6527   -0.8299 H         1 <0>         0.0265
     44 H10         6.5418   -0.4686   -1.2417 H         1 <0>         0.0265
     45 H11         5.4728    0.2070   -2.4685 H         1 <0>         0.0265
     46 H12         6.5879    1.6542   -0.0173 H         1 <0>         0.0265
     47 H13         7.0266    1.9413   -1.6996 H         1 <0>         0.0265
     48 H14         3.1868   -1.3408    2.3029 H         1 <0>         0.0465
     49 H15         1.4613   -1.2234    2.8050 H         1 <0>         0.0465
     50 H16         1.5878   -3.6852    3.0797 H         1 <0>         0.0303
     51 H17         3.0894   -3.7661    2.1347 H         1 <0>         0.0303
     52 H18         0.5927    1.1938   -0.8696 H         1 <0>         0.1232
     53 H19        -0.2828    0.3145    1.2340 H         1 <0>         0.0540
     54 H20         0.6792    1.5841    2.0663 H         1 <0>         0.0540
     55 H21        -0.1432   -3.8501   -1.0879 H         1 <0>         0.1491
     56 H22        -2.2642   -4.7700   -1.2571 H         1 <0>         0.0512
     57 H23        -2.5810   -4.4663    0.4478 H         1 <0>         0.0512
     58 H24        -2.6327   -3.0215   -2.9511 H         1 <0>         0.0621
     59 H25        -3.3238   -2.2292    1.2310 H         1 <0>         0.0621
     60 H26        -3.5288    2.8922    1.0262 H         1 <0>         0.0694
     61 H27        -2.5833    4.1479    1.8801 H         1 <0>         0.0694
     62 H28        -3.8391   -0.9773   -3.5436 H         1 <0>         0.0626
     63 H29        -4.5061   -0.1751    0.6566 H         1 <0>         0.0626
     64 H30        -4.6558    3.5725    3.1478 H         1 <0>         0.0262
     65 H31        -3.2022    3.1056    4.0636 H         1 <0>         0.0262
     66 H32        -4.1328    1.8728    3.2216 H         1 <0>         0.0262
     67 H33        -6.5077    2.1056   -1.2352 H         1 <0>         0.2886
     68 H34        -6.3179    0.7441   -0.1854 H         1 <0>         0.2886
     69 H35        -5.0163    2.9242   -3.9763 H         1 <0>         0.3605
@<TRIPOS>BOND
     1    1   21 2
     2    2   22 2
     3    3   24 1
     4    3   29 1
     5    4   24 2
     6    5   10 1
     7    5   69 1
     8    6   17 1
     9    6   19 1
    10    6   21 am
    11    7   12 1
    12    7   23 1
    13    7   52 1
    14    8   22 am
    15    8   25 1
    16    8   55 1
    17    9   34 1
    18    9   67 1
    19    9   68 1
    20   10   34 2
    21   11   12 1
    22   11   13 1
    23   11   14 1
    24   11   35 1
    25   12   21 1
    26   12   36 1
    27   13   15 1
    28   13   37 1
    29   13   38 1
    30   14   16 1
    31   14   39 1
    32   14   40 1
    33   15   18 1
    34   15   42 1
    35   15   43 1
    36   16   18 1
    37   16   44 1
    38   16   45 1
    39   17   20 1
    40   17   22 1
    41   17   41 1
    42   18   46 1
    43   18   47 1
    44   19   20 1
    45   19   48 1
    46   19   49 1
    47   20   50 1
    48   20   51 1
    49   23   24 1
    50   23   53 1
    51   23   54 1
    52   25   26 1
    53   25   56 1
    54   25   57 1
    55   26   27 ar
    56   26   28 ar
    57   27   30 ar
    58   27   58 1
    59   28   31 ar
    60   28   59 1
    61   29   33 1
    62   29   60 1
    63   29   61 1
    64   30   32 ar
    65   30   62 1
    66   31   32 ar
    67   31   63 1
    68   32   34 1
    69   33   64 1
    70   33   65 1
    71   33   66 1
