@<TRIPOS>MOLECULE
DB04864
   36    38     0     0     0
SMALL
USER_CHARGES

@<TRIPOS>ATOM
      1 O1         -4.7202    1.5341   -1.3112 O.2       1 <0>        -0.2679
      2 N1          0.0567    0.2623    2.5775 N.3       1 <0>        -0.3174
      3 N2         -2.4249    1.3026   -1.3892 N.am      1 <0>        -0.3259
      4 C1          0.0817   -0.0573    1.1362 C.3       1 <0>         0.0694
      5 C2          1.2223    0.3309   -1.0665 C.3       1 <0>         0.0058
      6 C3          1.2761    0.5928    0.4258 C.2       1 <0>        -0.0422
      7 C4          0.2708   -1.6000    0.9782 C.3       1 <0>        -0.0057
      8 C5         -1.2295    0.3717    0.4385 C.2       1 <0>        -0.0038
      9 C6          0.0103    1.0960   -1.6333 C.3       1 <0>        -0.0020
     10 C7         -1.2399    0.9122   -0.8014 C.2       1 <0>         0.0252
     11 C8          0.6762   -2.0400   -0.4198 C.2       1 <0>        -0.0736
     12 C9          1.0951   -1.1539   -1.3437 C.2       1 <0>        -0.0774
     13 C10         2.2615    1.3186    0.9779 C.2       1 <0>        -0.0852
     14 C11        -2.5056    0.1786    1.1120 C.2       1 <0>        -0.0497
     15 C12         0.5809   -3.5080   -0.7079 C.3       1 <0>        -0.0437
     16 C13        -3.6649    0.5534    0.5571 C.2       1 <0>         0.0031
     17 C14        -3.6659    1.1768   -0.7924 C.2       1 <0>         0.2489
     18 C15         3.3774    1.9279    0.2027 C.3       1 <0>        -0.0465
     19 H1          2.1246    0.6650   -1.5883 H         1 <0>         0.0392
     20 H2         -0.6535   -2.1198    1.2646 H         1 <0>         0.0334
     21 H3          1.0521   -1.9529    1.6669 H         1 <0>         0.0334
     22 H4         -0.1783    0.7719   -2.6654 H         1 <0>         0.0336
     23 H5          0.2422    2.1687   -1.6740 H         1 <0>         0.0336
     24 H6          1.3533   -1.4915   -2.3441 H         1 <0>         0.0578
     25 H7         -0.5616   -0.3741    3.0767 H         1 <0>         0.1193
     26 H8         -0.2978    1.2063    2.7237 H         1 <0>         0.1193
     27 H9          2.2830    1.4854    2.0507 H         1 <0>         0.0570
     28 H10        -2.5238   -0.2969    2.0863 H         1 <0>         0.0623
     29 H11        -2.3779    1.7090   -2.3194 H         1 <0>         0.1686
     30 H12        -0.4525   -3.8510   -0.5940 H         1 <0>         0.0274
     31 H13         1.2135   -4.0718   -0.0148 H         1 <0>         0.0274
     32 H14         0.9030   -3.7502   -1.7261 H         1 <0>         0.0274
     33 H15        -4.6139    0.4059    1.0583 H         1 <0>         0.0672
     34 H16         3.9158    2.6392    0.8388 H         1 <0>         0.0272
     35 H17         3.0192    2.4925   -0.6633 H         1 <0>         0.0272
     36 H18         4.0945    1.1657   -0.1170 H         1 <0>         0.0272
@<TRIPOS>BOND
     1    1   17 2
     2    2    4 1
     3    2   25 1
     4    2   26 1
     5    3   10 1
     6    3   17 am
     7    3   29 1
     8    4    6 1
     9    4    7 1
    10    4    8 1
    11    5    6 1
    12    5    9 1
    13    5   12 1
    14    5   19 1
    15    6   13 2
    16    7   11 1
    17    7   20 1
    18    7   21 1
    19    8   10 2
    20    8   14 1
    21    9   10 1
    22    9   22 1
    23    9   23 1
    24   11   12 2
    25   11   15 1
    26   12   24 1
    27   13   18 1
    28   13   27 1
    29   14   16 2
    30   14   28 1
    31   15   30 1
    32   15   31 1
    33   15   32 1
    34   16   17 1
    35   16   33 1
    36   18   34 1
    37   18   35 1
    38   18   36 1
