@<TRIPOS>MOLECULE
DB04540
   74    77     0     0     0
SMALL
USER_CHARGES

@<TRIPOS>ATOM
      1 O1          7.9028    1.7944   -0.6951 O.3       1 <0>        -0.3915
      2 C1         -0.2960   -1.1207    0.1501 C.3       1 <0>        -0.0259
      3 C2          0.3752   -0.1550    1.1469 C.3       1 <0>        -0.0320
      4 C3          1.9052   -0.2275    1.1238 C.3       1 <0>        -0.0307
      5 C4          2.4187    0.0854   -0.3119 C.3       1 <0>        -0.0285
      6 C5         -1.7795   -0.8299    0.4837 C.3       1 <0>        -0.0328
      7 C6          0.1396   -0.7027   -1.2613 C.3       1 <0>        -0.0468
      8 C7          3.9945   -0.0148   -0.3976 C.3       1 <0>        -0.0078
      9 C8         -0.3538   -0.4246    2.4598 C.3       1 <0>        -0.0492
     10 C9          1.6711   -0.7241   -1.4072 C.3       1 <0>        -0.0486
     11 C10        -1.7973   -0.7441    2.0282 C.3       1 <0>        -0.0492
     12 C11         2.5120    0.7621    2.1296 C.3       1 <0>        -0.0311
     13 C12        -2.8059   -1.8096   -0.0667 C.3       1 <0>        -0.0405
     14 C13         0.0481   -2.6121    0.3881 C.3       1 <0>        -0.0590
     15 C14         4.6516    0.6720    0.8080 C.2       1 <0>        -0.0648
     16 C15         4.4583    0.6958   -1.7043 C.3       1 <0>        -0.0413
     17 C16         3.9686    1.0196    1.9126 C.2       1 <0>        -0.0839
     18 C17         4.4642   -1.4894   -0.4219 C.3       1 <0>        -0.0556
     19 C18         6.1316    0.9633    0.7142 C.3       1 <0>        -0.0051
     20 C19         5.9668    0.9210   -1.7972 C.3       1 <0>        -0.0258
     21 C20        -4.2550   -1.4255    0.2996 C.3       1 <0>        -0.0502
     22 C21         6.4875    1.6831   -0.5838 C.3       1 <0>         0.0590
     23 C22        -2.6788   -1.9018   -1.5926 C.3       1 <0>        -0.0621
     24 C23        -4.7145   -0.0310   -0.1463 C.3       1 <0>        -0.0526
     25 C24        -6.1341    0.3197    0.3112 C.3       1 <0>        -0.0507
     26 C25        -6.6208    1.6909   -0.1972 C.3       1 <0>        -0.0467
     27 C26        -6.5812    1.7995   -1.7224 C.3       1 <0>        -0.0627
     28 C27        -5.7689    2.8037    0.4193 C.3       1 <0>        -0.0627
     29 H1          0.1079    0.8759    0.8585 H         1 <0>         0.0309
     30 H2          2.2251   -1.2339    1.4162 H         1 <0>         0.0309
     31 H3          2.1552    1.1393   -0.5004 H         1 <0>         0.0312
     32 H4         -2.0002    0.1745    0.0971 H         1 <0>         0.0309
     33 H5         -0.2208    0.3090   -1.4877 H         1 <0>         0.0271
     34 H6         -0.2510   -1.3563   -2.0412 H         1 <0>         0.0271
     35 H7         -0.3215    0.4394    3.1313 H         1 <0>         0.0268
     36 H8          0.0825   -1.2761    2.9937 H         1 <0>         0.0268
     37 H9          2.0010   -1.7670   -1.4062 H         1 <0>         0.0268
     38 H10         1.9222   -0.3244   -2.3963 H         1 <0>         0.0268
     39 H11        -2.1191   -1.6831    2.4927 H         1 <0>         0.0268
     40 H12        -2.4858    0.0403    2.3621 H         1 <0>         0.0268
     41 H13         2.3713    0.3715    3.1448 H         1 <0>         0.0310
     42 H14         1.9902    1.7263    2.0866 H         1 <0>         0.0310
     43 H15        -2.6386   -2.8120    0.3470 H         1 <0>         0.0301
     44 H16        -0.3827   -3.2549   -0.3852 H         1 <0>         0.0235
     45 H17         1.1249   -2.8011    0.3771 H         1 <0>         0.0235
     46 H18        -0.3212   -2.9760    1.3523 H         1 <0>         0.0235
     47 H19         3.9670    1.6753   -1.7837 H         1 <0>         0.0274
     48 H20         4.1437    0.1211   -2.5835 H         1 <0>         0.0274
     49 H21         4.4851    1.5233    2.7261 H         1 <0>         0.0572
     50 H22         4.1544   -1.9976   -1.3408 H         1 <0>         0.0238
     51 H23         5.5547   -1.5800   -0.3789 H         1 <0>         0.0238
     52 H24         4.0672   -2.0565    0.4264 H         1 <0>         0.0238
     53 H25         6.4778    1.5699    1.5611 H         1 <0>         0.0335
     54 H26         6.6979    0.0265    0.7895 H         1 <0>         0.0335
     55 H27         6.4949   -0.0350   -1.9000 H         1 <0>         0.0290
     56 H28         6.2021    1.4816   -2.7105 H         1 <0>         0.0290
     57 H29        -4.9399   -2.1734   -0.1214 H         1 <0>         0.0268
     58 H30        -4.3757   -1.4997    1.3878 H         1 <0>         0.0268
     59 H31         6.0712    2.6979   -0.5809 H         1 <0>         0.0596
     60 H32        -2.5490   -0.9223   -2.0633 H         1 <0>         0.0233
     61 H33        -3.5839   -2.3455   -2.0253 H         1 <0>         0.0233
     62 H34        -1.8702   -2.5711   -1.8920 H         1 <0>         0.0233
     63 H35        -4.0293    0.7191    0.2555 H         1 <0>         0.0265
     64 H36        -4.6497    0.0176   -1.2372 H         1 <0>         0.0265
     65 H37         8.2198    2.2853    0.0822 H         1 <0>         0.2098
     66 H38        -6.1835    0.2944    1.4069 H         1 <0>         0.0268
     67 H39        -6.8246   -0.4529   -0.0499 H         1 <0>         0.0268
     68 H40        -7.6580    1.8224    0.1352 H         1 <0>         0.0295
     69 H41        -7.1017    0.9557   -2.1869 H         1 <0>         0.0232
     70 H42        -7.0824    2.7181   -2.0476 H         1 <0>         0.0232
     71 H43        -5.5597    1.8345   -2.1135 H         1 <0>         0.0232
     72 H44        -5.7285    2.7109    1.5096 H         1 <0>         0.0232
     73 H45        -6.2049    3.7822    0.1884 H         1 <0>         0.0232
     74 H46        -4.7443    2.8087    0.0346 H         1 <0>         0.0232
@<TRIPOS>BOND
     1    1   22 1
     2    1   65 1
     3    2    3 1
     4    2    6 1
     5    2    7 1
     6    2   14 1
     7    3    4 1
     8    3    9 1
     9    3   29 1
    10    4    5 1
    11    4   12 1
    12    4   30 1
    13    5    8 1
    14    5   10 1
    15    5   31 1
    16    6   11 1
    17    6   13 1
    18    6   32 1
    19    7   10 1
    20    7   33 1
    21    7   34 1
    22    8   15 1
    23    8   16 1
    24    8   18 1
    25    9   11 1
    26    9   35 1
    27    9   36 1
    28   10   37 1
    29   10   38 1
    30   11   39 1
    31   11   40 1
    32   12   17 1
    33   12   41 1
    34   12   42 1
    35   13   21 1
    36   13   23 1
    37   13   43 1
    38   14   44 1
    39   14   45 1
    40   14   46 1
    41   15   17 2
    42   15   19 1
    43   16   20 1
    44   16   47 1
    45   16   48 1
    46   17   49 1
    47   18   50 1
    48   18   51 1
    49   18   52 1
    50   19   22 1
    51   19   53 1
    52   19   54 1
    53   20   22 1
    54   20   55 1
    55   20   56 1
    56   21   24 1
    57   21   57 1
    58   21   58 1
    59   22   59 1
    60   23   60 1
    61   23   61 1
    62   23   62 1
    63   24   25 1
    64   24   63 1
    65   24   64 1
    66   25   26 1
    67   25   66 1
    68   25   67 1
    69   26   27 1
    70   26   28 1
    71   26   68 1
    72   27   69 1
    73   27   70 1
    74   27   71 1
    75   28   72 1
    76   28   73 1
    77   28   74 1
