@<TRIPOS>MOLECULE
DB04571
   29    31     0     0     0
SMALL
USER_CHARGES

@<TRIPOS>ATOM
      1 O1          2.6821   -0.6389   -0.0007 O.3       1 <0>        -0.4596
      2 O2         -1.9491   -1.9956   -0.0007 O.3       1 <0>        -0.4217
      3 O3         -4.1621   -2.5707    0.0017 O.2       1 <0>        -0.2452
      4 C1         -1.3211    0.3673   -0.0009 C.ar      1 <0>         0.0216
      5 C2          1.0515    0.9237   -0.0006 C.ar      1 <0>         0.0215
      6 C3          1.3345   -0.4369   -0.0011 C.ar      1 <0>         0.1416
      7 C4          0.3652   -1.4337   -0.0014 C.ar      1 <0>         0.0353
      8 C5         -0.9612   -0.9841   -0.0011 C.ar      1 <0>         0.1457
      9 C6         -0.2975    1.3346   -0.0007 C.ar      1 <0>        -0.0400
     10 C7         -2.7510    0.7138   -0.0002 C.2       1 <0>        -0.0330
     11 C8          2.3110    1.5798    0.0001 C.2       1 <0>        -0.0132
     12 C9          3.2646    0.5884   -0.0001 C.2       1 <0>         0.1033
     13 C10         0.7036   -2.8849   -0.0005 C.3       1 <0>        -0.0327
     14 C11        -3.6613   -0.2701    0.0013 C.2       1 <0>         0.0265
     15 C12        -3.1727    2.1546   -0.0005 C.3       1 <0>        -0.0388
     16 C13        -3.3019   -1.6971    0.0013 C.2       1 <0>         0.3375
     17 C14         4.7339    0.6092    0.0007 C.3       1 <0>        -0.0063
     18 H1         -0.5197    2.3976   -0.0002 H         1 <0>         0.0632
     19 H2          2.4965    2.6448    0.0008 H         1 <0>         0.0658
     20 H3          1.7854   -3.0521   -0.0020 H         1 <0>         0.0280
     21 H4          0.2953   -3.3704    0.8920 H         1 <0>         0.0280
     22 H5          0.2928   -3.3722   -0.8908 H         1 <0>         0.0280
     23 H6         -4.7241   -0.0474    0.0021 H         1 <0>         0.0692
     24 H7         -2.7992    2.6693   -0.8922 H         1 <0>         0.0278
     25 H8         -2.7985    2.6699    0.8906 H         1 <0>         0.0278
     26 H9         -4.2634    2.2615   -0.0001 H         1 <0>         0.0278
     27 H10         5.1250    0.1023    0.8883 H         1 <0>         0.0308
     28 H11         5.1149    1.6353    0.0010 H         1 <0>         0.0308
     29 H12         5.1262    0.1023   -0.8863 H         1 <0>         0.0308
@<TRIPOS>BOND
     1    1    6 1
     2    1   12 1
     3    2    8 1
     4    2   16 1
     5    3   16 2
     6    4    8 ar
     7    4    9 ar
     8    4   10 1
     9    5    6 ar
    10    5    9 ar
    11    5   11 1
    12    6    7 ar
    13    7    8 ar
    14    7   13 1
    15    9   18 1
    16   10   14 2
    17   10   15 1
    18   11   12 2
    19   11   19 1
    20   12   17 1
    21   13   20 1
    22   13   21 1
    23   13   22 1
    24   14   16 1
    25   14   23 1
    26   15   24 1
    27   15   25 1
    28   15   26 1
    29   17   27 1
    30   17   28 1
    31   17   29 1
