@<TRIPOS>MOLECULE
DB04820
   40    41     0     0     0
SMALL
USER_CHARGES

@<TRIPOS>ATOM
      1 O1         -1.5332    0.4315   -1.6001 O.2       1 <0>        -0.2758
      2 O2          3.5685   -0.4865    2.1002 O.2       1 <0>        -0.2689
      3 N1         -2.8756    1.5589   -0.0793 N.am      1 <0>        -0.3112
      4 N2          1.8971    1.2601    0.7547 N.3       1 <0>        -0.2399
      5 N3          3.1157    0.8352    0.2476 N.am      1 <0>        -0.2469
      6 N4          7.6007   -1.1670   -0.7167 N.ar      1 <0>        -0.2632
      7 C1         -0.5128    1.4320    0.3550 C.3       1 <0>         0.0380
      8 C2          0.8212    0.9047   -0.1624 C.3       1 <0>         0.0219
      9 C3         -4.1211    1.3468   -0.7771 C.3       1 <0>         0.0368
     10 C4         -1.6690    1.0732   -0.5618 C.2       1 <0>         0.2145
     11 C5         -4.8001    0.0802   -0.3424 C.ar      1 <0>        -0.0303
     12 C6         -4.5239   -1.1101   -1.0048 C.ar      1 <0>        -0.0571
     13 C7         -5.6977    0.1105    0.7185 C.ar      1 <0>        -0.0571
     14 C8         -5.1543   -2.2870   -0.6009 C.ar      1 <0>        -0.0615
     15 C9         -6.3282   -1.0665    1.1224 C.ar      1 <0>        -0.0615
     16 C10         3.8799   -0.0406    0.9985 C.2       1 <0>         0.2576
     17 C11        -6.0564   -2.2652    0.4626 C.ar      1 <0>        -0.0617
     18 C12         5.1813   -0.4344    0.3986 C.ar      1 <0>         0.0408
     19 C13         6.2123   -0.8045    1.2290 C.ar      1 <0>        -0.0314
     20 C14         5.3162   -0.4174   -0.9691 C.ar      1 <0>        -0.0314
     21 C15         7.4046   -1.1630    0.6209 C.ar      1 <0>         0.0283
     22 C16         6.5487   -0.7931   -1.4789 C.ar      1 <0>         0.0283
     23 H1         -0.4790    2.5247    0.4478 H         1 <0>         0.0371
     24 H2         -0.7245    1.0158    1.3480 H         1 <0>         0.0371
     25 H3          1.0149    1.3201   -1.1600 H         1 <0>         0.0445
     26 H4          0.7666   -0.1862   -0.2688 H         1 <0>         0.0445
     27 H5         -3.9398    1.3321   -1.8586 H         1 <0>         0.0512
     28 H6         -4.7609    2.2140   -0.5772 H         1 <0>         0.0512
     29 H7         -2.8973    2.0659    0.8009 H         1 <0>         0.1490
     30 H8          1.9510    2.2742    0.8447 H         1 <0>         0.1442
     31 H9         -3.8270   -1.1407   -1.8374 H         1 <0>         0.0621
     32 H10        -5.9154    1.0380    1.2407 H         1 <0>         0.0621
     33 H11         3.4269    1.2526   -0.6234 H         1 <0>         0.1693
     34 H12        -4.9436   -3.2201   -1.1152 H         1 <0>         0.0618
     35 H13        -7.0303   -1.0499    1.9509 H         1 <0>         0.0618
     36 H14        -6.5474   -3.1815    0.7771 H         1 <0>         0.0618
     37 H15         6.1246   -0.8191    2.3091 H         1 <0>         0.0640
     38 H16         4.5204   -0.1620   -1.6579 H         1 <0>         0.0640
     39 H17         8.2618   -1.4648    1.2139 H         1 <0>         0.0830
     40 H18         6.7253   -0.8109   -2.5494 H         1 <0>         0.0830
@<TRIPOS>BOND
     1    1   10 2
     2    2   16 2
     3    3    9 1
     4    3   10 am
     5    3   29 1
     6    4    5 1
     7    4    8 1
     8    4   30 1
     9    5   16 am
    10    5   33 1
    11    6   21 ar
    12    6   22 ar
    13    7    8 1
    14    7   10 1
    15    7   23 1
    16    7   24 1
    17    8   25 1
    18    8   26 1
    19    9   11 1
    20    9   27 1
    21    9   28 1
    22   11   12 ar
    23   11   13 ar
    24   12   14 ar
    25   12   31 1
    26   13   15 ar
    27   13   32 1
    28   14   17 ar
    29   14   34 1
    30   15   17 ar
    31   15   35 1
    32   16   18 1
    33   17   36 1
    34   18   19 ar
    35   18   20 ar
    36   19   21 ar
    37   19   37 1
    38   20   22 ar
    39   20   38 1
    40   21   39 1
    41   22   40 1
