@<TRIPOS>MOLECULE
DB04209
   74    77     0     0     0
SMALL
USER_CHARGES

@<TRIPOS>ATOM
      1 N1         -6.9137    0.2994    0.6524 N.ar      1 <0>        -0.1946
      2 N2          6.9046    0.2653   -0.6651 N.ar      1 <0>        -0.1946
      3 N3        -10.6037    0.3050   -1.2455 N.pl3     1 <0>        -0.3572
      4 N4         10.5811    0.4904    1.2455 N.pl3     1 <0>        -0.3572
      5 C1         -0.5608    0.5048    0.5079 C.3       1 <0>        -0.0531
      6 C2          0.5484    0.4323   -0.5440 C.3       1 <0>        -0.0531
      7 C3         -1.9699    0.4925   -0.0918 C.3       1 <0>        -0.0529
      8 C4          1.9334    0.4816    0.1070 C.3       1 <0>        -0.0529
      9 C5         -3.0781    0.4910    0.9642 C.3       1 <0>        -0.0473
     10 C6          3.0408    0.3636   -0.9424 C.3       1 <0>        -0.0473
     11 C7         -4.4638    0.4537    0.3137 C.3       1 <0>         0.0070
     12 C8          4.4478    0.3105   -0.3387 C.3       1 <0>         0.0070
     13 C9         -5.5997    0.3709    1.3302 C.3       1 <0>         0.1513
     14 C10         5.5915    0.2586   -1.3494 C.3       1 <0>         0.1513
     15 C11        -7.4413   -0.8963    0.3284 C.ar      1 <0>         0.2169
     16 C12         7.4870   -0.8962   -0.3117 C.ar      1 <0>         0.2169
     17 C13        -7.5248    1.4620    0.3895 C.ar      1 <0>         0.1831
     18 C14         7.4586    1.4615   -0.4271 C.ar      1 <0>         0.1831
     19 C15        -8.6962   -0.9383   -0.3186 C.ar      1 <0>         0.0670
     20 C16         8.7393   -0.8634    0.3409 C.ar      1 <0>         0.0670
     21 C17        -8.7567    1.4799   -0.2432 C.ar      1 <0>         0.0263
     22 C18         8.6853    1.5526    0.2094 C.ar      1 <0>         0.0263
     23 C19        -9.3457    0.2716   -0.5991 C.ar      1 <0>         0.0440
     24 C20         9.3292    0.3821    0.5956 C.ar      1 <0>         0.0440
     25 C21        -6.7588   -2.0796    0.6274 C.ar      1 <0>         0.0104
     26 C22         6.8628   -2.1172   -0.5854 C.ar      1 <0>         0.0104
     27 C23        -6.8764    2.7490    0.7794 C.3       1 <0>         0.0208
     28 C24         6.7517    2.7068   -0.8492 C.3       1 <0>         0.0208
     29 C25        -9.2433   -2.1865   -0.6549 C.ar      1 <0>        -0.0465
     30 C26         9.3436   -2.0761    0.7080 C.ar      1 <0>        -0.0465
     31 C27        -7.3177   -3.3102    0.2857 C.ar      1 <0>        -0.0555
     32 C28         7.4778   -3.3118   -0.2132 C.ar      1 <0>        -0.0555
     33 C29        -8.5559   -3.3640   -0.3533 C.ar      1 <0>        -0.0607
     34 C30         8.7143   -3.2917    0.4315 C.ar      1 <0>        -0.0607
     35 H1         -0.4572   -0.3428    1.1970 H         1 <0>         0.0265
     36 H2         -0.4365    1.4159    1.1063 H         1 <0>         0.0265
     37 H3          0.4427    1.2669   -1.2475 H         1 <0>         0.0265
     38 H4          0.4421   -0.4940   -1.1213 H         1 <0>         0.0265
     39 H5         -2.0779   -0.3952   -0.7276 H         1 <0>         0.0265
     40 H6         -2.0895    1.3661   -0.7444 H         1 <0>         0.0265
     41 H7          2.0276   -0.3381    0.8295 H         1 <0>         0.0265
     42 H8          2.0513    1.4193    0.6630 H         1 <0>         0.0265
     43 H9         -2.9571   -0.3802    1.6192 H         1 <0>         0.0267
     44 H10        -2.9909    1.3850    1.5930 H         1 <0>         0.0267
     45 H11         2.8822   -0.5400   -1.5439 H         1 <0>         0.0267
     46 H12         2.9776    1.2169   -1.6288 H         1 <0>         0.0267
     47 H13        -4.5815    1.3246   -0.3388 H         1 <0>         0.0326
     48 H14        -4.5157   -0.4174   -0.3511 H         1 <0>         0.0326
     49 H15         4.5076   -0.5717    0.3112 H         1 <0>         0.0326
     50 H16         4.5724    1.1657    0.3341 H         1 <0>         0.0326
     51 H17        -5.4822   -0.4633    2.0260 H         1 <0>         0.1031
     52 H18        -5.5692    1.2267    2.0101 H         1 <0>         0.1031
     53 H19         5.5246    1.0975   -2.0475 H         1 <0>         0.1031
     54 H20         5.5126   -0.5952   -2.0265 H         1 <0>         0.1031
     55 H21        -9.2568    2.4204   -0.4577 H         1 <0>         0.0698
     56 H22         9.1391    2.5204    0.4038 H         1 <0>         0.0698
     57 H23        -5.7812   -2.1246    1.0913 H         1 <0>         0.0683
     58 H24         5.8911   -2.2193   -1.0524 H         1 <0>         0.0683
     59 H25        -6.8921    2.8777    1.8664 H         1 <0>         0.0336
     60 H26        -5.8594    2.8515    0.3987 H         1 <0>         0.0336
     61 H27        -7.4301    3.6001    0.3640 H         1 <0>         0.0336
     62 H28         6.7717    2.8135   -1.9386 H         1 <0>         0.0336
     63 H29         5.7267    2.7665   -0.4803 H         1 <0>         0.0336
     64 H30         7.2585    3.5924   -0.4464 H         1 <0>         0.0336
     65 H31       -10.2026   -2.2876   -1.1531 H         1 <0>         0.0626
     66 H32        10.3042   -2.1199    1.2121 H         1 <0>         0.0626
     67 H33        -6.7849   -4.2300    0.5105 H         1 <0>         0.0620
     68 H34         6.9907   -4.2608   -0.4187 H         1 <0>         0.0620
     69 H35        -8.9862   -4.3255   -0.6190 H         1 <0>         0.0618
     70 H36         9.1886   -4.2252    0.7210 H         1 <0>         0.0618
     71 H37       -11.0409    1.1990   -1.4296 H         1 <0>         0.1423
     72 H38       -11.0836   -0.5366   -1.5265 H         1 <0>         0.1423
     73 H39        10.9744    1.4081    1.4105 H         1 <0>         0.1423
     74 H40        11.0990   -0.3207    1.5480 H         1 <0>         0.1423
@<TRIPOS>BOND
     1    1   13 1
     2    1   15 ar
     3    1   17 ar
     4    2   14 1
     5    2   16 ar
     6    2   18 ar
     7    3   23 1
     8    3   71 1
     9    3   72 1
    10    4   24 1
    11    4   73 1
    12    4   74 1
    13    5    6 1
    14    5    7 1
    15    5   35 1
    16    5   36 1
    17    6    8 1
    18    6   37 1
    19    6   38 1
    20    7    9 1
    21    7   39 1
    22    7   40 1
    23    8   10 1
    24    8   41 1
    25    8   42 1
    26    9   11 1
    27    9   43 1
    28    9   44 1
    29   10   12 1
    30   10   45 1
    31   10   46 1
    32   11   13 1
    33   11   47 1
    34   11   48 1
    35   12   14 1
    36   12   49 1
    37   12   50 1
    38   13   51 1
    39   13   52 1
    40   14   53 1
    41   14   54 1
    42   15   19 ar
    43   15   25 ar
    44   16   20 ar
    45   16   26 ar
    46   17   21 ar
    47   17   27 1
    48   18   22 ar
    49   18   28 1
    50   19   23 ar
    51   19   29 ar
    52   20   24 ar
    53   20   30 ar
    54   21   23 ar
    55   21   55 1
    56   22   24 ar
    57   22   56 1
    58   25   31 ar
    59   25   57 1
    60   26   32 ar
    61   26   58 1
    62   27   59 1
    63   27   60 1
    64   27   61 1
    65   28   62 1
    66   28   63 1
    67   28   64 1
    68   29   33 ar
    69   29   65 1
    70   30   34 ar
    71   30   66 1
    72   31   33 ar
    73   31   67 1
    74   32   34 ar
    75   32   68 1
    76   33   69 1
    77   34   70 1
