@<TRIPOS>MOLECULE
DB04272
   21    20     0     0     0
SMALL
USER_CHARGES

@<TRIPOS>ATOM
      1 O1          0.0380   -0.2564    1.7839 O.3       1 <0>        -0.3765
      2 O2          0.8037   -1.8881   -1.3286 O.3       1 <0>        -0.4786
      3 O3          1.1820   -2.4554    0.8313 O.2       1 <0>        -0.2477
      4 O4          2.8158    1.9782   -0.4965 O.3       1 <0>        -0.4805
      5 O5         -3.2941    0.8325   -0.8233 O.3       1 <0>        -0.4805
      6 O6          2.7301    0.2662    0.9908 O.2       1 <0>        -0.2509
      7 O7         -2.2734    1.3910    1.1261 O.2       1 <0>        -0.2509
      8 C1         -0.0130   -0.3741    0.3669 C.3       1 <0>         0.1820
      9 C2          0.7462    0.7956   -0.2834 C.3       1 <0>         0.0845
     10 C3         -1.4697   -0.5326   -0.0965 C.3       1 <0>         0.0845
     11 C4          0.7046   -1.6814    0.0106 C.2       1 <0>         0.3379
     12 C5          2.1872    0.9608    0.1406 C.2       1 <0>         0.3080
     13 C6         -2.3753    0.6502    0.1563 C.2       1 <0>         0.3080
     14 H1          0.2500    1.7354   -0.0118 H         1 <0>         0.0412
     15 H2          0.7284    0.7021   -1.3756 H         1 <0>         0.0412
     16 H3         -1.9395   -1.3899    0.4026 H         1 <0>         0.0412
     17 H4         -1.4899   -0.7358   -1.1750 H         1 <0>         0.0412
     18 H5         -0.4974   -0.9713    2.1687 H         1 <0>         0.2109
     19 H6          1.2827   -2.7188   -1.5355 H         1 <0>         0.2951
     20 H7          3.7454    2.0781   -0.1993 H         1 <0>         0.2951
     21 H8         -3.8619    1.6139   -0.6523 H         1 <0>         0.2951
@<TRIPOS>BOND
     1    1    8 1
     2    1   18 1
     3    2   11 1
     4    2   19 1
     5    3   11 2
     6    4   12 1
     7    4   20 1
     8    5   13 1
     9    5   21 1
    10    6   12 2
    11    7   13 2
    12    8    9 1
    13    8   10 1
    14    8   11 1
    15    9   12 1
    16    9   14 1
    17    9   15 1
    18   10   13 1
    19   10   16 1
    20   10   17 1
