@<TRIPOS>MOLECULE
DB05541
   35    35     0     0     0
SMALL
USER_CHARGES

@<TRIPOS>ATOM
      1 O1         -1.8418    0.8106   -2.6401 O.2       1 <0>        -0.2756
      2 O2         -2.5982    1.2289    2.4939 O.2       1 <0>        -0.2740
      3 N1         -1.1534    0.2806   -0.4535 N.am      1 <0>        -0.2897
      4 N2         -2.0740    2.6439    0.7628 N.am      1 <0>        -0.3278
      5 C1          1.0771   -0.2199   -0.8837 C.3       1 <0>        -0.0170
      6 C2          0.0989    0.0918    0.2404 C.3       1 <0>         0.0187
      7 C3          0.5009    0.5389   -2.0822 C.3       1 <0>         0.0284
      8 C4          2.5067    0.1749   -0.5581 C.3       1 <0>        -0.0486
      9 C5         -2.4148    0.3025    0.2548 C.3       1 <0>         0.1017
     10 C6         -0.9845    0.5544   -1.8078 C.2       1 <0>         0.2165
     11 C7          3.0473   -0.6333    0.6153 C.3       1 <0>        -0.0556
     12 C8         -2.7678   -1.0635    0.8515 C.3       1 <0>        -0.0286
     13 C9         -2.3685    1.4090    1.3003 C.2       1 <0>         0.2310
     14 C10         4.4696   -0.2201    0.9575 C.3       1 <0>        -0.0653
     15 C11        -2.7903   -2.2016   -0.1624 C.3       1 <0>        -0.0631
     16 H1          1.0297   -1.2952   -1.1070 H         1 <0>         0.0320
     17 H2          0.0309   -0.7335    0.9542 H         1 <0>         0.0467
     18 H3          0.3529    1.0173    0.7679 H         1 <0>         0.0467
     19 H4          0.7139    0.0265   -3.0242 H         1 <0>         0.0362
     20 H5          0.8562    1.5734   -2.1314 H         1 <0>         0.0362
     21 H6          2.5616    1.2463   -0.3274 H         1 <0>         0.0268
     22 H7          3.1392    0.0091   -1.4391 H         1 <0>         0.0268
     23 H8         -3.2028    0.5744   -0.4599 H         1 <0>         0.0596
     24 H9          3.0303   -1.7026    0.3740 H         1 <0>         0.0263
     25 H10         2.4241   -0.4912    1.5049 H         1 <0>         0.0263
     26 H11        -3.7564   -0.9987    1.3237 H         1 <0>         0.0285
     27 H12        -2.0700   -1.3259    1.6561 H         1 <0>         0.0285
     28 H13         5.1401   -0.3780    0.1067 H         1 <0>         0.0230
     29 H14         4.5148    0.8367    1.2397 H         1 <0>         0.0230
     30 H15         4.8442   -0.8120    1.7986 H         1 <0>         0.0230
     31 H16        -3.4783   -1.9784   -0.9839 H         1 <0>         0.0230
     32 H17        -1.7965   -2.3837   -0.5825 H         1 <0>         0.0230
     33 H18        -3.1239   -3.1268    0.3183 H         1 <0>         0.0230
     34 H19        -1.8967    2.7759   -0.2276 H         1 <0>         0.1450
     35 H20        -2.0205    3.4695    1.3501 H         1 <0>         0.1450
@<TRIPOS>BOND
     1    1   10 2
     2    2   13 2
     3    3    6 1
     4    3    9 1
     5    3   10 am
     6    4   13 am
     7    4   34 1
     8    4   35 1
     9    5    6 1
    10    5    7 1
    11    5    8 1
    12    5   16 1
    13    6   17 1
    14    6   18 1
    15    7   10 1
    16    7   19 1
    17    7   20 1
    18    8   11 1
    19    8   21 1
    20    8   22 1
    21    9   12 1
    22    9   13 1
    23    9   23 1
    24   11   14 1
    25   11   24 1
    26   11   25 1
    27   12   15 1
    28   12   26 1
    29   12   27 1
    30   14   28 1
    31   14   29 1
    32   14   30 1
    33   15   31 1
    34   15   32 1
    35   15   33 1
