@<TRIPOS>MOLECULE
DB05381
   17    17     0     0     0
SMALL
USER_CHARGES

@<TRIPOS>ATOM
      1 N1         -1.7314    0.8973    0.0104 N.pl3     1 <0>        -0.3482
      2 N2          2.9722    0.0266   -0.2842 N.3       1 <0>        -0.3296
      3 N3         -2.7406   -1.0796   -0.0643 N.2       1 <0>        -0.2440
      4 C1          0.6499    0.3350    0.4755 C.3       1 <0>         0.0013
      5 C2         -0.7907   -0.0397    0.2337 C.cat     1 <0>         0.0365
      6 C3          1.5802   -0.3262   -0.5420 C.3       1 <0>        -0.0015
      7 C4         -1.4017   -1.2428    0.1893 C.2       1 <0>         0.0484
      8 C5         -2.9061    0.2204   -0.1661 C.cat     1 <0>         0.0935
      9 H1          0.7651    1.4258    0.4336 H         1 <0>         0.0340
     10 H2          0.9205    0.0243    1.4928 H         1 <0>         0.0340
     11 H3          1.3153   -0.0161   -1.5594 H         1 <0>         0.0425
     12 H4          1.4838   -1.4171   -0.5056 H         1 <0>         0.0425
     13 H5         -1.6076    1.9010   -0.0230 H         1 <0>         0.1665
     14 H6         -0.9738   -2.2254    0.3234 H         1 <0>         0.0848
     15 H7         -3.8383    0.7301   -0.3643 H         1 <0>         0.1027
     16 H8          3.2253   -0.2539    0.6626 H         1 <0>         0.1182
     17 H9          3.0779    1.0402   -0.3122 H         1 <0>         0.1182
@<TRIPOS>BOND
     1    1    5 1
     2    1    8 2
     3    1   13 1
     4    2    6 1
     5    2   16 1
     6    2   17 1
     7    3    7 2
     8    3    8 1
     9    4    5 1
    10    4    6 1
    11    4    9 1
    12    4   10 1
    13    5    7 1
    14    6   11 1
    15    6   12 1
    16    7   14 1
    17    8   15 1
