@<TRIPOS>MOLECULE
DB05667
   64    68     0     0     0
SMALL
USER_CHARGES

@<TRIPOS>ATOM
      1 Cl1         3.4376   -2.4033   -1.0690 Cl        1 <0>        -0.0830
      2 Cl2         8.4206   -4.4164   -0.7829 Cl        1 <0>        -0.0835
      3 O1          3.3700   -0.1068    0.1538 O.3       1 <0>        -0.3343
      4 O2          5.2148    1.2023    0.7619 O.3       1 <0>        -0.3406
      5 O3          1.1048   -0.7468    1.7854 O.3       1 <0>        -0.4893
      6 O4         -9.3148    0.0338    0.4359 O.2       1 <0>        -0.2759
      7 N1         -4.2843   -0.4871    0.5131 N.pl3     1 <0>        -0.3269
      8 N2         -7.0910   -0.2753   -0.1632 N.am      1 <0>        -0.2987
      9 N3          3.7346    2.2229   -1.4631 N.pl3     1 <0>        -0.3313
     10 N4          3.1270    4.3326   -1.1276 N.2       1 <0>        -0.2441
     11 C1          4.6985    0.2978   -0.2354 C.3       1 <0>         0.2169
     12 C2          3.2560    0.2724    1.5269 C.3       1 <0>         0.1195
     13 C3          4.1018    1.5170    1.5990 C.3       1 <0>         0.0808
     14 C4          4.5900    1.0474   -1.5628 C.3       1 <0>         0.0828
     15 C5          5.6115   -0.9105   -0.3816 C.ar      1 <0>         0.0313
     16 C6          1.8055    0.4907    1.9002 C.3       1 <0>         0.1179
     17 C7         -4.8075   -1.1208   -0.6997 C.3       1 <0>         0.0280
     18 C8         -5.2317    0.1860    1.4062 C.3       1 <0>         0.0280
     19 C9         -6.0584   -0.3945   -1.1950 C.3       1 <0>         0.0304
     20 C10        -6.6394   -0.3764    1.2222 C.3       1 <0>         0.0304
     21 C11        -2.9301   -0.5519    0.8317 C.ar      1 <0>         0.0300
     22 C12         5.1174   -2.1605   -0.7544 C.ar      1 <0>         0.0507
     23 C13         6.9741   -0.7446   -0.1337 C.ar      1 <0>        -0.0507
     24 C14        -0.2182   -0.6828    1.4727 C.ar      1 <0>         0.1207
     25 C15        -8.4443   -0.0667   -0.4319 C.2       1 <0>         0.2126
     26 C16        -2.1715   -1.6524    0.4328 C.ar      1 <0>        -0.0372
     27 C17        -2.3327    0.4831    1.5513 C.ar      1 <0>        -0.0372
     28 C18         2.3864    2.2633   -1.6820 C.cat     1 <0>         0.0242
     29 C19         4.1343    3.4879   -1.1330 C.cat     1 <0>         0.0961
     30 C20        -0.8156   -1.7177    0.7533 C.ar      1 <0>        -0.0182
     31 C21        -0.9769    0.4177    1.8718 C.ar      1 <0>        -0.0182
     32 C22         5.9860   -3.2448   -0.8793 C.ar      1 <0>        -0.0246
     33 C23         7.8425   -1.8290   -0.2584 C.ar      1 <0>        -0.0429
     34 C24         7.3486   -3.0789   -0.6312 C.ar      1 <0>         0.0424
     35 C25         2.0343    3.5753   -1.4686 C.2       1 <0>         0.0454
     36 C26        -8.8275    0.0309   -1.8882 C.3       1 <0>         0.0124
     37 H1          3.6913   -0.5417    2.1198 H         1 <0>         0.0654
     38 H2          3.5881    2.4067    1.2308 H         1 <0>         0.0588
     39 H3          4.4506    1.7247    2.6147 H         1 <0>         0.0588
     40 H4          4.1645    0.4188   -2.3546 H         1 <0>         0.0549
     41 H5          5.5694    1.4048   -1.9044 H         1 <0>         0.0549
     42 H6          1.3873    1.2393    1.2149 H         1 <0>         0.0723
     43 H7          1.7310    0.8504    2.9326 H         1 <0>         0.0723
     44 H8         -4.0656   -1.0994   -1.5074 H         1 <0>         0.0479
     45 H9         -5.0460   -2.1698   -0.4853 H         1 <0>         0.0479
     46 H10        -4.9455    0.0463    2.4558 H         1 <0>         0.0479
     47 H11        -5.2311    1.2615    1.1911 H         1 <0>         0.0479
     48 H12        -5.8050    0.6267   -1.5046 H         1 <0>         0.0480
     49 H13        -6.4594   -0.9154   -2.0692 H         1 <0>         0.0480
     50 H14        -7.3403    0.1414    1.8856 H         1 <0>         0.0480
     51 H15        -6.6645   -1.4406    1.4871 H         1 <0>         0.0480
     52 H16         7.3893    0.2199    0.1451 H         1 <0>         0.0623
     53 H17        -2.6095   -2.4821   -0.1153 H         1 <0>         0.0637
     54 H18        -2.8944    1.3571    1.8696 H         1 <0>         0.0637
     55 H19         1.8133    1.3891   -1.9581 H         1 <0>         0.0825
     56 H20         5.1634    3.7339   -0.9093 H         1 <0>         0.1029
     57 H21        -0.2295   -2.5784    0.4424 H         1 <0>         0.0655
     58 H22        -0.5569    1.2323    2.4545 H         1 <0>         0.0655
     59 H23         5.6024   -4.2207   -1.1696 H         1 <0>         0.0647
     60 H24         8.9024   -1.6847   -0.0646 H         1 <0>         0.0632
     61 H25         1.0493    4.0126   -1.5420 H         1 <0>         0.0845
     62 H26        -9.8703    0.3529   -1.9679 H         1 <0>         0.0323
     63 H27        -8.2063    0.7683   -2.4032 H         1 <0>         0.0323
     64 H28        -8.7302   -0.9477   -2.3654 H         1 <0>         0.0323
@<TRIPOS>BOND
     1    1   22 1
     2    2   34 1
     3    3   11 1
     4    3   12 1
     5    4   11 1
     6    4   13 1
     7    5   16 1
     8    5   24 1
     9    6   25 2
    10    7   17 1
    11    7   18 1
    12    7   21 1
    13    8   19 1
    14    8   20 1
    15    8   25 am
    16    9   14 1
    17    9   28 1
    18    9   29 2
    19   10   29 1
    20   10   35 2
    21   11   14 1
    22   11   15 1
    23   12   13 1
    24   12   16 1
    25   12   37 1
    26   13   38 1
    27   13   39 1
    28   14   40 1
    29   14   41 1
    30   15   22 ar
    31   15   23 ar
    32   16   42 1
    33   16   43 1
    34   17   19 1
    35   17   44 1
    36   17   45 1
    37   18   20 1
    38   18   46 1
    39   18   47 1
    40   19   48 1
    41   19   49 1
    42   20   50 1
    43   20   51 1
    44   21   26 ar
    45   21   27 ar
    46   22   32 ar
    47   23   33 ar
    48   23   52 1
    49   24   30 ar
    50   24   31 ar
    51   25   36 1
    52   26   30 ar
    53   26   53 1
    54   27   31 ar
    55   27   54 1
    56   28   35 1
    57   28   55 1
    58   29   56 1
    59   30   57 1
    60   31   58 1
    61   32   34 ar
    62   32   59 1
    63   33   34 ar
    64   33   60 1
    65   35   61 1
    66   36   62 1
    67   36   63 1
    68   36   64 1
