@<TRIPOS>MOLECULE
DB05039
   57    60     0     0     0
SMALL
USER_CHARGES

@<TRIPOS>ATOM
      1 O1          3.4148    2.8942    0.9343 O.3       1 <0>        -0.3859
      2 O2          7.6208   -0.4205   -2.2151 O.3       1 <0>        -0.5047
      3 O3          6.5090   -4.0338    0.9761 O.2       1 <0>        -0.2679
      4 N1          0.7879    1.7139    0.8842 N.3       1 <0>        -0.3099
      5 N2          6.5421   -2.0663   -0.2195 N.am      1 <0>        -0.3192
      6 C1         -0.4781    1.4465    0.2187 C.3       1 <0>         0.0157
      7 C2         -0.7463   -0.0602    0.0214 C.3       1 <0>        -0.0116
      8 C3         -1.6839    2.0010    1.0045 C.3       1 <0>        -0.0116
      9 C4         -2.2428   -0.0767   -0.0306 C.ar      1 <0>        -0.0424
     10 C5         -2.7748    1.0926    0.5270 C.ar      1 <0>        -0.0424
     11 C6         -3.0686   -1.0840   -0.4999 C.ar      1 <0>        -0.0548
     12 C7         -4.1432    1.2782    0.6263 C.ar      1 <0>        -0.0548
     13 C8          1.9044    1.1736    0.1197 C.3       1 <0>         0.0264
     14 C9         -4.4505   -0.8998   -0.4150 C.ar      1 <0>        -0.0442
     15 C10        -4.9838    0.2726    0.1438 C.ar      1 <0>        -0.0442
     16 C11         3.2388    1.4836    0.8092 C.3       1 <0>         0.0932
     17 C12        -5.3514   -1.9780   -0.9248 C.3       1 <0>        -0.0303
     18 C13        -6.4629    0.4648    0.2398 C.3       1 <0>        -0.0303
     19 C14         4.4089    0.9286    0.0271 C.ar      1 <0>        -0.0086
     20 C15         4.9244   -0.3341    0.2868 C.ar      1 <0>         0.0078
     21 C16        -5.7013   -2.9967    0.1550 C.3       1 <0>        -0.0613
     22 C17        -7.0371    1.1518   -0.9951 C.3       1 <0>        -0.0613
     23 C18         4.9488    1.7370   -0.9642 C.ar      1 <0>        -0.0519
     24 C19         6.0092   -0.7890   -0.4718 C.ar      1 <0>         0.0915
     25 C20         6.0302    1.2760   -1.7164 C.ar      1 <0>        -0.0178
     26 C21         4.3736   -1.2027    1.3242 C.2       1 <0>        -0.0471
     27 C22         6.5640    0.0112   -1.4722 C.ar      1 <0>         0.1407
     28 C23         4.8960   -2.4139    1.5475 C.2       1 <0>         0.0034
     29 C24         6.0494   -2.9160    0.7516 C.2       1 <0>         0.2493
     30 H1         -0.4789    1.9320   -0.7698 H         1 <0>         0.0467
     31 H2         -0.4060   -0.6619    0.8719 H         1 <0>         0.0328
     32 H3         -0.3040   -0.4349   -0.9069 H         1 <0>         0.0328
     33 H4         -1.8739    3.0501    0.7585 H         1 <0>         0.0328
     34 H5         -1.5601    1.8892    2.0876 H         1 <0>         0.0328
     35 H6          0.9071    2.7187    1.0093 H         1 <0>         0.1223
     36 H7         -2.6443   -1.9915   -0.9177 H         1 <0>         0.0623
     37 H8         -4.5434    2.1850    1.0688 H         1 <0>         0.0623
     38 H9          1.8187    0.0872    0.0069 H         1 <0>         0.0453
     39 H10         1.9018    1.6182   -0.8843 H         1 <0>         0.0453
     40 H11         3.2285    1.1168    1.8395 H         1 <0>         0.0656
     41 H12        -6.2645   -1.5790   -1.3757 H         1 <0>         0.0311
     42 H13        -4.8525   -2.5044   -1.7498 H         1 <0>         0.0311
     43 H14        -6.9948   -0.4717    0.4299 H         1 <0>         0.0311
     44 H15        -6.6892    1.0846    1.1180 H         1 <0>         0.0311
     45 H16        -4.8008   -3.4918    0.5350 H         1 <0>         0.0233
     46 H17        -6.3607   -3.7683   -0.2553 H         1 <0>         0.0233
     47 H18        -6.2094   -2.5348    1.0071 H         1 <0>         0.0233
     48 H19        -6.5962    2.1451   -1.1336 H         1 <0>         0.0233
     49 H20        -8.1193    1.2768   -0.8870 H         1 <0>         0.0233
     50 H21        -6.8517    0.5768   -1.9075 H         1 <0>         0.0233
     51 H22         4.5471    2.7196   -1.1946 H         1 <0>         0.0622
     52 H23         4.2414    3.0500    1.4233 H         1 <0>         0.2103
     53 H24         3.5215   -0.8995    1.9176 H         1 <0>         0.0626
     54 H25         6.4501    1.9075   -2.4948 H         1 <0>         0.0655
     55 H26         7.3173   -2.4082   -0.7746 H         1 <0>         0.1690
     56 H27         4.4883   -3.0693    2.3091 H         1 <0>         0.0672
     57 H28         8.0304   -1.1958   -1.8037 H         1 <0>         0.2922
@<TRIPOS>BOND
     1    1   16 1
     2    1   52 1
     3    2   27 1
     4    2   57 1
     5    3   29 2
     6    4    6 1
     7    4   13 1
     8    4   35 1
     9    5   24 1
    10    5   29 am
    11    5   55 1
    12    6    7 1
    13    6    8 1
    14    6   30 1
    15    7    9 1
    16    7   31 1
    17    7   32 1
    18    8   10 1
    19    8   33 1
    20    8   34 1
    21    9   10 ar
    22    9   11 ar
    23   10   12 ar
    24   11   14 ar
    25   11   36 1
    26   12   15 ar
    27   12   37 1
    28   13   16 1
    29   13   38 1
    30   13   39 1
    31   14   15 ar
    32   14   17 1
    33   15   18 1
    34   16   19 1
    35   16   40 1
    36   17   21 1
    37   17   41 1
    38   17   42 1
    39   18   22 1
    40   18   43 1
    41   18   44 1
    42   19   20 ar
    43   19   23 ar
    44   20   24 ar
    45   20   26 1
    46   21   45 1
    47   21   46 1
    48   21   47 1
    49   22   48 1
    50   22   49 1
    51   22   50 1
    52   23   25 ar
    53   23   51 1
    54   24   27 ar
    55   25   27 ar
    56   25   54 1
    57   26   28 2
    58   26   53 1
    59   28   29 1
    60   28   56 1
