@<TRIPOS>MOLECULE
DB05013
   65    68     0     0     0
SMALL
USER_CHARGES

@<TRIPOS>ATOM
      1 O1         -0.6342   -0.8358    0.3074 O.3       1 <0>        -0.3803
      2 O2          1.6777    2.1393   -2.5072 O.2       1 <0>        -0.2957
      3 O3         -2.8792    0.3908   -0.0676 O.3       1 <0>        -0.4506
      4 O4         -0.9854   -2.0106   -2.3308 O.3       1 <0>        -0.3844
      5 O5          1.0198   -3.7300   -2.8172 O.3       1 <0>        -0.3906
      6 O6         -3.6984   -1.7120   -0.5238 O.2       1 <0>        -0.2453
      7 C1          3.4891    0.9905   -0.0786 C.3       1 <0>        -0.0193
      8 C2          2.8602    1.2766    1.2592 C.3       1 <0>        -0.0311
      9 C3          3.8910    0.1884    1.1382 C.3       1 <0>        -0.0277
     10 C4          2.6977    0.4260   -1.2304 C.3       1 <0>         0.0405
     11 C5          1.4360    0.9305    1.5514 C.3       1 <0>        -0.0455
     12 C6          0.2152    1.2800   -0.7454 C.3       1 <0>         0.0856
     13 C7          0.4110    1.7528    0.7374 C.3       1 <0>        -0.0248
     14 C8         -0.5881   -0.0829   -0.9083 C.3       1 <0>         0.1519
     15 C9          1.5257    1.3367   -1.5773 C.2       1 <0>         0.1534
     16 C10         5.1858    0.2709    1.8637 C.3       1 <0>        -0.0593
     17 C11         3.3689   -1.2152    1.1765 C.3       1 <0>        -0.0593
     18 C12         2.4086   -1.0445   -1.2427 C.2       1 <0>        -0.0696
     19 C13        -0.7289    2.2372   -1.4677 C.2       1 <0>        -0.0651
     20 C14        -0.0036   -1.0145   -2.0118 C.3       1 <0>         0.1120
     21 C15        -2.0601    0.3389   -1.2314 C.3       1 <0>         0.1567
     22 C16         0.7153    3.2582    0.8771 C.3       1 <0>        -0.0611
     23 C17         1.2855   -1.7009   -1.5842 C.2       1 <0>        -0.0167
     24 C18        -1.9297    1.7266   -1.7441 C.2       1 <0>        -0.0326
     25 C19         1.2892   -3.2110   -1.5304 C.3       1 <0>         0.0678
     26 C20        -3.0565    2.4207   -2.4212 C.3       1 <0>        -0.0402
     27 C21        -3.6563   -0.7082    0.1732 C.2       1 <0>         0.3352
     28 C22        -4.4584   -0.5030    1.4175 C.2       1 <0>         0.0294
     29 C23        -5.3840    0.6755    1.4814 C.3       1 <0>        -0.0333
     30 C24        -4.2520   -1.3958    2.4032 C.2       1 <0>        -0.0774
     31 C25        -3.3143   -2.5611    2.3873 C.3       1 <0>        -0.0461
     32 H1          4.1948    1.7393   -0.4310 H         1 <0>         0.0319
     33 H2          3.1610    2.1967    1.7501 H         1 <0>         0.0309
     34 H3          3.3778    0.5350   -2.0915 H         1 <0>         0.0423
     35 H4          1.2831    1.1916    2.6094 H         1 <0>         0.0271
     36 H5          1.1868   -0.1191    1.5327 H         1 <0>         0.0271
     37 H6         -0.5544    1.6084    1.2457 H         1 <0>         0.0312
     38 H7          4.0565   -1.9036    0.6705 H         1 <0>         0.0235
     39 H8          2.3392   -1.4572    0.9434 H         1 <0>         0.0235
     40 H9          3.4229   -1.5401    2.2281 H         1 <0>         0.0235
     41 H10         5.9250   -0.4098    1.4283 H         1 <0>         0.0235
     42 H11         5.0654    0.0216    2.9233 H         1 <0>         0.0235
     43 H12         5.6022    1.2827    1.8091 H         1 <0>         0.0235
     44 H13         3.2995   -1.6661   -1.1683 H         1 <0>         0.0580
     45 H14        -0.4597    3.2547   -1.7260 H         1 <0>         0.0583
     46 H15         0.1596   -0.4558   -2.9412 H         1 <0>         0.0672
     47 H16        -2.5198   -0.2730   -2.0151 H         1 <0>         0.0813
     48 H17        -0.1415    3.8677    0.5720 H         1 <0>         0.0233
     49 H18         1.5767    3.5594    0.2726 H         1 <0>         0.0233
     50 H19         0.9238    3.5181    1.9209 H         1 <0>         0.0233
     51 H20         0.1500   -1.3948    0.3991 H         1 <0>         0.2105
     52 H21         2.2500   -3.6154   -1.1943 H         1 <0>         0.0605
     53 H22         0.5218   -3.5643   -0.8328 H         1 <0>         0.0605
     54 H23        -3.3449    1.8808   -3.3285 H         1 <0>         0.0276
     55 H24        -2.7870    3.4420   -2.7093 H         1 <0>         0.0276
     56 H25        -3.9262    2.4766   -1.7593 H         1 <0>         0.0276
     57 H26        -0.7073   -2.4429   -3.1567 H         1 <0>         0.2103
     58 H27         1.0033   -4.6990   -2.7392 H         1 <0>         0.2098
     59 H28        -5.9519    0.6907    2.4173 H         1 <0>         0.0280
     60 H29        -6.1005    0.6389    0.6547 H         1 <0>         0.0280
     61 H30        -4.8219    1.6122    1.4138 H         1 <0>         0.0280
     62 H31        -4.8198   -1.2766    3.3242 H         1 <0>         0.0574
     63 H32        -2.5745   -2.5350    1.5848 H         1 <0>         0.0272
     64 H33        -2.7557   -2.5842    3.3292 H         1 <0>         0.0272
     65 H34        -3.8815   -3.4937    2.3103 H         1 <0>         0.0272
@<TRIPOS>BOND
     1    1   14 1
     2    1   51 1
     3    2   15 2
     4    3   21 1
     5    3   27 1
     6    4   20 1
     7    4   57 1
     8    5   25 1
     9    5   58 1
    10    6   27 2
    11    7    8 1
    12    7    9 1
    13    7   10 1
    14    7   32 1
    15    8    9 1
    16    8   11 1
    17    8   33 1
    18    9   16 1
    19    9   17 1
    20   10   15 1
    21   10   18 1
    22   10   34 1
    23   11   13 1
    24   11   35 1
    25   11   36 1
    26   12   13 1
    27   12   14 1
    28   12   15 1
    29   12   19 1
    30   13   22 1
    31   13   37 1
    32   14   20 1
    33   14   21 1
    34   16   41 1
    35   16   42 1
    36   16   43 1
    37   17   38 1
    38   17   39 1
    39   17   40 1
    40   18   23 2
    41   18   44 1
    42   19   24 2
    43   19   45 1
    44   20   23 1
    45   20   46 1
    46   21   24 1
    47   21   47 1
    48   22   48 1
    49   22   49 1
    50   22   50 1
    51   23   25 1
    52   24   26 1
    53   25   52 1
    54   25   53 1
    55   26   54 1
    56   26   55 1
    57   26   56 1
    58   27   28 1
    59   28   29 1
    60   28   30 2
    61   29   59 1
    62   29   60 1
    63   29   61 1
    64   30   31 1
    65   30   62 1
    66   31   63 1
    67   31   64 1
    68   31   65 1
