@<TRIPOS>MOLECULE
DB05057
   26    26     0     0     0
SMALL
USER_CHARGES

@<TRIPOS>ATOM
      1 S1         -4.5327    0.2652   -1.4760 S.3       1 <0>        -0.0862
      2 S2          2.1315    0.3342    0.5835 S.3       1 <0>        -0.1402
      3 O1         -2.9687   -1.8154   -1.9008 O.2       1 <0>        -0.2832
      4 O2         -0.4869   -1.2186    2.0590 O.2       1 <0>        -0.2749
      5 O3          5.6564    0.9031   -0.9517 O.3       1 <0>        -0.4800
      6 O4          4.6255    1.8933    0.8152 O.2       1 <0>        -0.2501
      7 N1         -1.0388   -0.7027   -0.1406 N.am      1 <0>        -0.3041
      8 C1         -2.4388   -0.4623    0.0594 C.3       1 <0>         0.0925
      9 C2         -2.7436    1.0126    0.2955 C.3       1 <0>        -0.0173
     10 C3         -4.2262    1.2129    0.0415 C.3       1 <0>         0.0031
     11 C4         -3.1927   -0.8472   -1.1909 C.2       1 <0>         0.2095
     12 C5         -0.1666   -1.0645    0.8816 C.2       1 <0>         0.2235
     13 C6          1.2598   -1.2418    0.4167 C.3       1 <0>         0.0707
     14 C7          3.7507   -0.1876   -0.0299 C.3       1 <0>         0.0913
     15 C8          4.6969    0.9779    0.0051 C.2       1 <0>         0.3147
     16 H1         -2.8106   -1.0728    0.8907 H         1 <0>         0.0586
     17 H2         -2.1569    1.6466   -0.3843 H         1 <0>         0.0296
     18 H3         -2.4730    1.3151    1.3134 H         1 <0>         0.0296
     19 H4         -4.8276    0.7965    0.8555 H         1 <0>         0.0381
     20 H5         -4.4826    2.2669   -0.0928 H         1 <0>         0.0381
     21 H6         -0.6631   -0.5728   -1.0760 H         1 <0>         0.1494
     22 H7          1.2810   -1.5776   -0.6247 H         1 <0>         0.0471
     23 H8          1.7357   -2.0067    1.0382 H         1 <0>         0.0471
     24 H9          3.6393   -0.5301   -1.0630 H         1 <0>         0.0490
     25 H10         4.1602   -0.9904    0.5892 H         1 <0>         0.0490
     26 H11         6.2716    1.6662   -0.9136 H         1 <0>         0.2951
@<TRIPOS>BOND
     1    1   10 1
     2    1   11 1
     3    2   13 1
     4    2   14 1
     5    3   11 2
     6    4   12 2
     7    5   15 1
     8    5   26 1
     9    6   15 2
    10    7    8 1
    11    7   12 am
    12    7   21 1
    13    8    9 1
    14    8   11 1
    15    8   16 1
    16    9   10 1
    17    9   17 1
    18    9   18 1
    19   10   19 1
    20   10   20 1
    21   12   13 1
    22   13   22 1
    23   13   23 1
    24   14   15 1
    25   14   24 1
    26   14   25 1
