@<TRIPOS>MOLECULE
DB05812
   57    61     0     0     0
SMALL
USER_CHARGES

@<TRIPOS>ATOM
      1 O1         -6.7018    0.4262   -0.7437 O.3       1 <0>        -0.3915
      2 N1          5.8306    2.1652    0.2384 N.ar      1 <0>        -0.2627
      3 C1         -0.9725    0.2000   -0.2501 C.3       1 <0>        -0.0285
      4 C2         -0.3913   -1.1403    0.2870 C.3       1 <0>        -0.0301
      5 C3          1.0838   -1.2373   -0.1096 C.3       1 <0>        -0.0248
      6 C4          1.9530   -0.0792    0.4481 C.3       1 <0>        -0.0034
      7 C5         -2.4840    0.3836    0.1733 C.3       1 <0>        -0.0078
      8 C6         -0.0667    1.4221    0.0648 C.3       1 <0>        -0.0484
      9 C7          1.4293    1.1970   -0.2316 C.3       1 <0>        -0.0430
     10 C8         -1.1935   -2.3229   -0.2757 C.3       1 <0>        -0.0311
     11 C9          1.8699   -2.5008    0.2198 C.3       1 <0>        -0.0303
     12 C10        -3.2693   -0.9190   -0.0383 C.2       1 <0>        -0.0648
     13 C11        -3.1065    1.5047   -0.7113 C.3       1 <0>        -0.0413
     14 C12         3.3183   -0.6304    0.0491 C.2       1 <0>        -0.0365
     15 C13        -2.6730   -2.1055   -0.2501 C.2       1 <0>        -0.0839
     16 C14         1.8935    0.0476    1.9920 C.3       1 <0>        -0.0553
     17 C15        -2.6072    0.7800    1.6642 C.3       1 <0>        -0.0556
     18 C16         3.2613   -1.9786   -0.0045 C.2       1 <0>        -0.0794
     19 C17        -4.7775   -0.8274   -0.0096 C.3       1 <0>        -0.0051
     20 C18        -4.6277    1.6122   -0.6129 C.3       1 <0>        -0.0258
     21 C19        -5.2969    0.2783   -0.9243 C.3       1 <0>         0.0590
     22 C20         4.5349    0.1628   -0.2002 C.ar      1 <0>        -0.0035
     23 C21         5.5280   -0.2858   -1.0711 C.ar      1 <0>        -0.0514
     24 C22         4.7394    1.3887    0.4227 C.ar      1 <0>         0.0350
     25 C23         6.6651    0.4851   -1.2865 C.ar      1 <0>        -0.0430
     26 C24         6.7675    1.6920   -0.6138 C.ar      1 <0>         0.0276
     27 H1         -0.9598    0.1114   -1.3490 H         1 <0>         0.0312
     28 H2         -0.4781   -1.1727    1.3785 H         1 <0>         0.0310
     29 H3          1.0956   -1.1672   -1.2142 H         1 <0>         0.0315
     30 H4         -0.1651    1.7130    1.1145 H         1 <0>         0.0269
     31 H5         -0.3993    2.2860   -0.5220 H         1 <0>         0.0269
     32 H6          1.5743    1.1384   -1.3183 H         1 <0>         0.0274
     33 H7          1.9833    2.0802    0.1040 H         1 <0>         0.0274
     34 H8         -0.9596   -3.2229    0.3060 H         1 <0>         0.0310
     35 H9         -0.9013   -2.5308   -1.3125 H         1 <0>         0.0310
     36 H10         1.6330   -3.3117   -0.4749 H         1 <0>         0.0311
     37 H11         1.7328   -2.8485    1.2478 H         1 <0>         0.0311
     38 H12        -2.8500    1.3261   -1.7646 H         1 <0>         0.0274
     39 H13        -2.6767    2.4792   -0.4505 H         1 <0>         0.0274
     40 H14        -3.2832   -2.9904   -0.4152 H         1 <0>         0.0572
     41 H15         2.2817   -0.8438    2.4979 H         1 <0>         0.0238
     42 H16         2.4855    0.8970    2.3457 H         1 <0>         0.0238
     43 H17         0.8785    0.2029    2.3669 H         1 <0>         0.0238
     44 H18        -2.0881    0.0718    2.3179 H         1 <0>         0.0238
     45 H19        -2.1951    1.7764    1.8535 H         1 <0>         0.0238
     46 H20        -3.6487    0.8140    2.0010 H         1 <0>         0.0238
     47 H21         4.0936   -2.6372   -0.2106 H         1 <0>         0.0575
     48 H22        -5.2472   -1.7755   -0.3021 H         1 <0>         0.0335
     49 H23        -5.1168   -0.6515    1.0190 H         1 <0>         0.0335
     50 H24        -4.9270    1.9638    0.3821 H         1 <0>         0.0290
     51 H25        -4.9882    2.3776   -1.3113 H         1 <0>         0.0290
     52 H26        -5.1214    0.0043   -1.9720 H         1 <0>         0.0596
     53 H27        -7.0047    1.1220   -1.3517 H         1 <0>         0.2098
     54 H28         5.4344   -1.2279   -1.6049 H         1 <0>         0.0624
     55 H29         4.0315    1.8137    1.1230 H         1 <0>         0.0835
     56 H30         7.4453    0.1533   -1.9621 H         1 <0>         0.0633
     57 H31         7.6342    2.3309   -0.7481 H         1 <0>         0.0829
@<TRIPOS>BOND
     1    1   21 1
     2    1   53 1
     3    2   24 ar
     4    2   26 ar
     5    3    4 1
     6    3    7 1
     7    3    8 1
     8    3   27 1
     9    4    5 1
    10    4   10 1
    11    4   28 1
    12    5    6 1
    13    5   11 1
    14    5   29 1
    15    6    9 1
    16    6   14 1
    17    6   16 1
    18    7   12 1
    19    7   13 1
    20    7   17 1
    21    8    9 1
    22    8   30 1
    23    8   31 1
    24    9   32 1
    25    9   33 1
    26   10   15 1
    27   10   34 1
    28   10   35 1
    29   11   18 1
    30   11   36 1
    31   11   37 1
    32   12   15 2
    33   12   19 1
    34   13   20 1
    35   13   38 1
    36   13   39 1
    37   14   18 2
    38   14   22 1
    39   15   40 1
    40   16   41 1
    41   16   42 1
    42   16   43 1
    43   17   44 1
    44   17   45 1
    45   17   46 1
    46   18   47 1
    47   19   21 1
    48   19   48 1
    49   19   49 1
    50   20   21 1
    51   20   50 1
    52   20   51 1
    53   21   52 1
    54   22   23 ar
    55   22   24 ar
    56   23   25 ar
    57   23   54 1
    58   24   55 1
    59   25   26 ar
    60   25   56 1
    61   26   57 1
