@<TRIPOS>MOLECULE
DB05239
   51    54     0     0     0
SMALL
USER_CHARGES

@<TRIPOS>ATOM
      1 I1          0.6490    6.3711   -0.4046 I         1 <0>        -0.0437
      2 F1         -3.9086    1.9813   -0.4732 F         1 <0>        -0.2005
      3 F2         -5.8054    0.4691   -1.7130 F         1 <0>        -0.2024
      4 F3         -1.0086    2.5689    3.0243 F         1 <0>        -0.2035
      5 O1          2.0698   -3.3790   -0.7804 O.3       1 <0>        -0.3839
      6 O2         -2.0375   -2.2327    2.5240 O.2       1 <0>        -0.2699
      7 N1         -0.6827   -2.4112    0.6718 N.am      1 <0>        -0.2918
      8 N2          3.2595   -1.3526    0.6249 N.3       1 <0>        -0.3105
      9 N3         -1.9077    0.8252    1.0490 N.pl3     1 <0>        -0.3094
     10 C1          1.2046   -2.4544   -0.1156 C.3       1 <0>         0.1124
     11 C2          1.9367   -1.1192    0.0316 C.3       1 <0>         0.0394
     12 C3         -0.2075   -2.3048   -0.6948 C.3       1 <0>         0.0469
     13 C4          0.5665   -2.9372    1.1919 C.3       1 <0>         0.0469
     14 C5          2.0638   -0.4574   -1.3475 C.3       1 <0>        -0.0347
     15 C6          2.8734    0.8333   -1.2718 C.3       1 <0>        -0.0504
     16 C7          4.0152   -0.1072    0.7652 C.3       1 <0>        -0.0038
     17 C8          4.2098    0.5856   -0.5810 C.3       1 <0>        -0.0404
     18 C9         -1.8288   -2.0455    1.3278 C.2       1 <0>         0.2487
     19 C10        -2.8655   -1.3600    0.5333 C.ar      1 <0>         0.0610
     20 C11        -2.8846    0.0284    0.4114 C.ar      1 <0>         0.0822
     21 C12        -3.8370   -2.1319   -0.1021 C.ar      1 <0>        -0.0449
     22 C13        -3.8783    0.6468   -0.3476 C.ar      1 <0>         0.1801
     23 C14        -4.8305   -1.5135   -0.8610 C.ar      1 <0>        -0.0228
     24 C15        -4.8512   -0.1243   -0.9839 C.ar      1 <0>         0.1603
     25 C16        -1.3345    2.0685    0.7252 C.ar      1 <0>         0.0671
     26 C17        -0.8916    2.9237    1.7368 C.ar      1 <0>         0.1454
     27 C18        -1.2064    2.4519   -0.6117 C.ar      1 <0>        -0.0368
     28 C19        -0.3236    4.1560    1.4132 C.ar      1 <0>        -0.0115
     29 C20        -0.6383    3.6839   -0.9354 C.ar      1 <0>        -0.0467
     30 C21        -0.1970    4.5361    0.0770 C.ar      1 <0>         0.0162
     31 H1          1.3661   -0.4486    0.6893 H         1 <0>         0.0490
     32 H2         -0.5472   -3.1399   -1.3165 H         1 <0>         0.0494
     33 H3         -0.4911   -1.3666   -1.1715 H         1 <0>         0.0494
     34 H4          0.5368   -4.0220    1.3330 H         1 <0>         0.0494
     35 H5          0.9013   -2.4525    2.1129 H         1 <0>         0.0494
     36 H6          2.5456   -1.1393   -2.0605 H         1 <0>         0.0281
     37 H7          1.0878   -0.2070   -1.7724 H         1 <0>         0.0281
     38 H8          3.7912   -1.9766    0.0172 H         1 <0>         0.1223
     39 H9          3.0390    1.2338   -2.2779 H         1 <0>         0.0266
     40 H10         2.3070    1.5887   -0.7133 H         1 <0>         0.0266
     41 H11         4.9930   -0.3332    1.2043 H         1 <0>         0.0424
     42 H12         3.5028    0.5610    1.4678 H         1 <0>         0.0424
     43 H13         4.8458   -0.0337   -1.2264 H         1 <0>         0.0277
     44 H14         4.7328    1.5375   -0.4359 H         1 <0>         0.0277
     45 H15         2.7044   -3.6751   -0.1061 H         1 <0>         0.2104
     46 H16        -3.8309   -3.2152   -0.0139 H         1 <0>         0.0627
     47 H17        -5.5880   -2.1133   -1.3567 H         1 <0>         0.0647
     48 H18        -1.5770    0.4440    1.9307 H         1 <0>         0.1523
     49 H19        -1.5136    1.7970   -1.4227 H         1 <0>         0.0637
     50 H20         0.0136    4.8044    2.2177 H         1 <0>         0.0657
     51 H21        -0.5426    3.9577   -1.9831 H         1 <0>         0.0628
@<TRIPOS>BOND
     1    1   30 1
     2    2   22 1
     3    3   24 1
     4    4   26 1
     5    5   10 1
     6    5   45 1
     7    6   18 2
     8    7   12 1
     9    7   13 1
    10    7   18 am
    11    8   11 1
    12    8   16 1
    13    8   38 1
    14    9   20 1
    15    9   25 1
    16    9   48 1
    17   10   11 1
    18   10   12 1
    19   10   13 1
    20   11   14 1
    21   11   31 1
    22   12   32 1
    23   12   33 1
    24   13   34 1
    25   13   35 1
    26   14   15 1
    27   14   36 1
    28   14   37 1
    29   15   17 1
    30   15   39 1
    31   15   40 1
    32   16   17 1
    33   16   41 1
    34   16   42 1
    35   17   43 1
    36   17   44 1
    37   18   19 1
    38   19   20 ar
    39   19   21 ar
    40   20   22 ar
    41   21   23 ar
    42   21   46 1
    43   22   24 ar
    44   23   24 ar
    45   23   47 1
    46   25   26 ar
    47   25   27 ar
    48   26   28 ar
    49   27   29 ar
    50   27   49 1
    51   28   30 ar
    52   28   50 1
    53   29   30 ar
    54   29   51 1
