@<TRIPOS>MOLECULE
DB05246
   28    29     0     0     0
SMALL
USER_CHARGES

@<TRIPOS>ATOM
      1 O1         -1.0548   -0.7305    1.9366 O.2       1 <0>        -0.2742
      2 O2         -3.0712    0.2200   -2.1098 O.2       1 <0>        -0.2752
      3 N1         -2.3451   -0.4279    0.0138 N.am      1 <0>        -0.2445
      4 C1         -0.2663    0.6704    0.1046 C.3       1 <0>         0.0778
      5 C2         -0.8768    0.8137   -1.3072 C.3       1 <0>         0.0423
      6 C3         -1.2415   -0.2572    0.8224 C.2       1 <0>         0.2323
      7 C4          1.1345    0.0631    0.0408 C.ar      1 <0>        -0.0322
      8 C5         -0.3561    2.0233    0.8397 C.3       1 <0>        -0.0467
      9 C6         -2.2399    0.1876   -1.2128 C.2       1 <0>         0.2229
     10 C7          1.2901   -1.3208   -0.0032 C.ar      1 <0>        -0.0576
     11 C8          2.2520    0.8952    0.0269 C.ar      1 <0>        -0.0576
     12 C9         -3.5148   -1.1931    0.4013 C.3       1 <0>         0.0108
     13 C10         2.5688   -1.8752   -0.0611 C.ar      1 <0>        -0.0615
     14 C11         3.5308    0.3409   -0.0310 C.ar      1 <0>        -0.0615
     15 C12         3.6890   -1.0443   -0.0750 C.ar      1 <0>        -0.0617
     16 H1         -0.3092    0.2708   -2.0716 H         1 <0>         0.0372
     17 H2         -0.9746    1.8576   -1.6223 H         1 <0>         0.0372
     18 H3          0.1005    1.9638    1.8350 H         1 <0>         0.0243
     19 H4          0.1422    2.8270    0.2868 H         1 <0>         0.0243
     20 H5         -1.3990    2.3323    0.9833 H         1 <0>         0.0243
     21 H6          0.4401   -1.9964   -0.0177 H         1 <0>         0.0621
     22 H7          2.1663    1.9766    0.0457 H         1 <0>         0.0621
     23 H8         -3.4370   -1.5354    1.4357 H         1 <0>         0.0433
     24 H9         -3.6046   -2.0525   -0.2697 H         1 <0>         0.0433
     25 H10        -4.4037   -0.5674    0.2776 H         1 <0>         0.0433
     26 H11         2.6924   -2.9534   -0.1010 H         1 <0>         0.0618
     27 H12         4.4033    0.9875   -0.0456 H         1 <0>         0.0618
     28 H13         4.6846   -1.4757   -0.1222 H         1 <0>         0.0618
@<TRIPOS>BOND
     1    1    6 2
     2    2    9 2
     3    3    6 am
     4    3    9 am
     5    3   12 1
     6    4    5 1
     7    4    6 1
     8    4    7 1
     9    4    8 1
    10    5    9 1
    11    5   16 1
    12    5   17 1
    13    7   10 ar
    14    7   11 ar
    15    8   18 1
    16    8   19 1
    17    8   20 1
    18   10   13 ar
    19   10   21 1
    20   11   14 ar
    21   11   22 1
    22   12   23 1
    23   12   24 1
    24   12   25 1
    25   13   15 ar
    26   13   26 1
    27   14   15 ar
    28   14   27 1
    29   15   28 1
