@<TRIPOS>MOLECULE
DB05294
   54    57     0     0     0
SMALL
USER_CHARGES

@<TRIPOS>ATOM
      1 Br1        10.3470   -1.4729   -0.0236 Br        1 <0>        -0.0502
      2 F1          5.6865   -2.0408   -2.2932 F         1 <0>        -0.2035
      3 O1         -1.6420    0.7848    1.1033 O.3       1 <0>        -0.4880
      4 O2         -0.2726   -1.5893    0.6461 O.3       1 <0>        -0.4914
      5 N1         -6.1317   -0.7061   -0.9012 N.3       1 <0>        -0.3053
      6 N2          2.2753    3.2837    0.0592 N.ar      1 <0>        -0.2352
      7 N3          4.4291   -0.1784   -0.6507 N.pl3     1 <0>        -0.2966
      8 N4          4.3223    2.1701   -0.5541 N.ar      1 <0>        -0.2200
      9 C1         -3.9120    0.7353    0.3600 C.3       1 <0>        -0.0045
     10 C2         -3.8053   -0.7349   -0.0592 C.3       1 <0>        -0.0342
     11 C3         -4.9726    1.4408   -0.4918 C.3       1 <0>        -0.0342
     12 C4         -5.1742   -1.4186   -0.0445 C.3       1 <0>        -0.0010
     13 C5         -6.3028    0.6853   -0.4621 C.3       1 <0>        -0.0010
     14 C6         -2.5615    1.4371    0.2469 C.3       1 <0>         0.0926
     15 C7         -7.4192   -1.4001   -0.9169 C.3       1 <0>        -0.0128
     16 C8         -0.3213    0.8004    0.7284 C.ar      1 <0>         0.1640
     17 C9          0.3525   -0.3886    0.5034 C.ar      1 <0>         0.1623
     18 C10         0.3234    2.0261    0.5794 C.ar      1 <0>         0.0098
     19 C11         1.6620    2.0953    0.2006 C.ar      1 <0>         0.0797
     20 C12         2.3422    0.8878   -0.0268 C.ar      1 <0>         0.0441
     21 C13         1.6907   -0.3488    0.1239 C.ar      1 <0>        -0.0038
     22 C14         3.6778    0.9976   -0.4037 C.ar      1 <0>         0.1340
     23 C15         3.5719    3.2566   -0.3098 C.ar      1 <0>         0.1187
     24 C16        -0.2245   -2.1969    1.9360 C.3       1 <0>         0.0790
     25 C17         5.7932   -0.4783   -0.5075 C.ar      1 <0>         0.0681
     26 C18         6.4015   -1.4179   -1.3454 C.ar      1 <0>         0.1455
     27 C19         6.5529    0.1625    0.4757 C.ar      1 <0>        -0.0367
     28 C20         7.7570   -1.7140   -1.2014 C.ar      1 <0>        -0.0106
     29 C21         7.9083   -0.1335    0.6197 C.ar      1 <0>        -0.0458
     30 C22         8.5105   -1.0718   -0.2188 C.ar      1 <0>         0.0207
     31 H1         -4.2278    0.7587    1.4123 H         1 <0>         0.0334
     32 H2         -3.1366   -1.2784    0.6177 H         1 <0>         0.0281
     33 H3         -3.3710   -0.8097   -1.0649 H         1 <0>         0.0281
     34 H4         -4.6257    1.5253   -1.5300 H         1 <0>         0.0281
     35 H5         -5.1274    2.4624   -0.1245 H         1 <0>         0.0281
     36 H6         -5.0458   -2.4459   -0.4067 H         1 <0>         0.0426
     37 H7         -5.5437   -1.4810    0.9878 H         1 <0>         0.0426
     38 H8         -6.7276    0.7272    0.5496 H         1 <0>         0.0426
     39 H9         -7.0027    1.2017   -1.1304 H         1 <0>         0.0426
     40 H10        -2.6560    2.4831    0.5614 H         1 <0>         0.0699
     41 H11        -2.2144    1.4201   -0.7950 H         1 <0>         0.0699
     42 H12        -8.1188   -0.8978   -1.5944 H         1 <0>         0.0391
     43 H13        -7.8764   -1.4480    0.0780 H         1 <0>         0.0391
     44 H14        -7.3006   -2.4229   -1.2916 H         1 <0>         0.0391
     45 H15        -0.2200    2.9499    0.7693 H         1 <0>         0.0677
     46 H16         2.2049   -1.2920   -0.0419 H         1 <0>         0.0663
     47 H17         3.9304   -0.8544   -1.2229 H         1 <0>         0.1537
     48 H18         4.0603    4.2168   -0.4216 H         1 <0>         0.1048
     49 H19        -0.7009   -1.5536    2.6825 H         1 <0>         0.0660
     50 H20         0.8110   -2.4046    2.2235 H         1 <0>         0.0660
     51 H21        -0.7716   -3.1425    1.8895 H         1 <0>         0.0660
     52 H22         6.1052    0.8870    1.1509 H         1 <0>         0.0637
     53 H23         8.2104   -2.4475   -1.8631 H         1 <0>         0.0658
     54 H24         8.4808    0.3735    1.3923 H         1 <0>         0.0629
@<TRIPOS>BOND
     1    1   30 1
     2    2   26 1
     3    3   14 1
     4    3   16 1
     5    4   17 1
     6    4   24 1
     7    5   12 1
     8    5   13 1
     9    5   15 1
    10    6   19 ar
    11    6   23 ar
    12    7   22 1
    13    7   25 1
    14    7   47 1
    15    8   22 ar
    16    8   23 ar
    17    9   10 1
    18    9   11 1
    19    9   14 1
    20    9   31 1
    21   10   12 1
    22   10   32 1
    23   10   33 1
    24   11   13 1
    25   11   34 1
    26   11   35 1
    27   12   36 1
    28   12   37 1
    29   13   38 1
    30   13   39 1
    31   14   40 1
    32   14   41 1
    33   15   42 1
    34   15   43 1
    35   15   44 1
    36   16   17 ar
    37   16   18 ar
    38   17   21 ar
    39   18   19 ar
    40   18   45 1
    41   19   20 ar
    42   20   21 ar
    43   20   22 ar
    44   21   46 1
    45   23   48 1
    46   24   49 1
    47   24   50 1
    48   24   51 1
    49   25   26 ar
    50   25   27 ar
    51   26   28 ar
    52   27   29 ar
    53   27   52 1
    54   28   30 ar
    55   28   53 1
    56   29   30 ar
    57   29   54 1
