@<TRIPOS>MOLECULE
DB05015
   36    37     0     0     0
SMALL
USER_CHARGES

@<TRIPOS>ATOM
      1 S1          2.7554   -0.0328    1.8259 S.o2      1 <0>         0.0724
      2 O1          4.0481   -0.6150    2.1666 O.2       1 <0>        -0.1500
      3 O2          1.8559    0.3596    2.9039 O.2       1 <0>        -0.1500
      4 O3         -4.4235   -2.0542   -0.4235 O.2       1 <0>        -0.2687
      5 O4         -5.8627    0.1227    0.2876 O.3       1 <0>        -0.2949
      6 N1          3.0324    1.3139    0.7874 N.pl3     1 <0>        -0.2163
      7 N2         -4.4642    0.1119    0.3815 N.am      1 <0>        -0.1940
      8 C1          1.9222   -1.1597    0.7848 C.ar      1 <0>         0.1091
      9 C2          0.5299   -1.1354    0.7019 C.ar      1 <0>        -0.0279
     10 C3         -0.1350   -2.0362   -0.1302 C.ar      1 <0>        -0.0230
     11 C4          2.6494   -2.0848    0.0354 C.ar      1 <0>        -0.0350
     12 C5          1.9103    1.8584    0.0713 C.ar      1 <0>         0.0480
     13 C6          0.5924   -2.9610   -0.8795 C.ar      1 <0>        -0.0545
     14 C7          1.9845   -2.9853   -0.7967 C.ar      1 <0>        -0.0593
     15 C8          0.8219    2.3580    0.7764 C.ar      1 <0>        -0.0393
     16 C9          1.9269    1.8797   -1.3182 C.ar      1 <0>        -0.0393
     17 C10        -1.5869   -2.0116   -0.2166 C.2       1 <0>        -0.0496
     18 C11        -0.2662    2.8865    0.0818 C.ar      1 <0>        -0.0600
     19 C12         0.8389    2.4084   -2.0128 C.ar      1 <0>        -0.0600
     20 C13        -0.2577    2.9117   -1.3126 C.ar      1 <0>        -0.0616
     21 C14        -2.3717   -0.9673    0.1312 C.2       1 <0>         0.0027
     22 C15        -3.8520   -1.0511   -0.0094 C.2       1 <0>         0.2593
     23 H1         -0.0194   -0.4294    1.3165 H         1 <0>         0.0643
     24 H2          3.9147    1.3005    0.2591 H         1 <0>         0.1737
     25 H3          3.7344   -2.1171    0.0779 H         1 <0>         0.0637
     26 H4          0.0919   -3.6697   -1.5349 H         1 <0>         0.0623
     27 H5          2.5509   -3.7039   -1.3819 H         1 <0>         0.0618
     28 H6          0.8022    2.3779    1.8612 H         1 <0>         0.0636
     29 H7          2.7754    1.4881   -1.8725 H         1 <0>         0.0636
     30 H8         -2.0463   -2.9179   -0.6058 H         1 <0>         0.0625
     31 H9         -1.1177    3.2833    0.6267 H         1 <0>         0.0618
     32 H10         0.8449    2.4272   -3.0987 H         1 <0>         0.0618
     33 H11        -1.1047    3.3236   -1.8533 H         1 <0>         0.0618
     34 H12        -1.9670   -0.0308    0.4983 H         1 <0>         0.0670
     35 H13        -4.0205    0.9332    0.7779 H         1 <0>         0.1825
     36 H14        -6.0871    0.6183    1.0933 H         1 <0>         0.2414
@<TRIPOS>BOND
     1    1    2 2
     2    1    3 2
     3    1    6 1
     4    1    8 1
     5    4   22 2
     6    5    7 1
     7    5   36 1
     8    6   12 1
     9    6   24 1
    10    7   22 am
    11    7   35 1
    12    8    9 ar
    13    8   11 ar
    14    9   10 ar
    15    9   23 1
    16   10   13 ar
    17   10   17 1
    18   11   14 ar
    19   11   25 1
    20   12   15 ar
    21   12   16 ar
    22   13   14 ar
    23   13   26 1
    24   14   27 1
    25   15   18 ar
    26   15   28 1
    27   16   19 ar
    28   16   29 1
    29   17   21 2
    30   17   30 1
    31   18   20 ar
    32   18   31 1
    33   19   20 ar
    34   19   32 1
    35   20   33 1
    36   21   22 1
    37   21   34 1
