@<TRIPOS>MOLECULE
DB05154
   37    39     0     0     0
SMALL
USER_CHARGES

@<TRIPOS>ATOM
      1 F1         -6.4462    1.1492   -1.1518 F         1 <0>        -0.1328
      2 F2         -7.9827    1.1486    0.4022 F         1 <0>        -0.1328
      3 F3         -7.4376   -0.7355   -0.5610 F         1 <0>        -0.1328
      4 O1          0.1401   -0.8917    0.2635 O.3       1 <0>        -0.3669
      5 O2          3.6141   -2.0617    0.6536 O.3       1 <0>        -0.4608
      6 O3         -5.9733    0.2467    0.8957 O.3       1 <0>        -0.4057
      7 O4          7.2226    2.2096   -0.5962 O.3       1 <0>        -0.5746
      8 O5          8.0361    0.2448   -0.0399 O.2       1 <0>         0.0432
      9 N1          3.6089    0.2304   -0.0021 N.pl3     1 <0>        -0.2918
     10 N2          5.5539   -0.7971    0.2786 N.2       1 <0>        -0.1282
     11 N3          7.0520    1.0067   -0.2522 N.pl3     1 <0>         0.1022
     12 C1          1.5125   -1.0016   -0.0800 C.3       1 <0>         0.1110
     13 C2          2.1731    0.3736   -0.0578 C.3       1 <0>         0.0572
     14 C3          2.2130   -1.9236    0.9199 C.3       1 <0>         0.1204
     15 C4          4.2475   -0.9298    0.3431 C.cat     1 <0>         0.3040
     16 C5          4.5535    1.1672   -0.2854 C.2       1 <0>         0.1076
     17 C6         -0.5546   -0.0530   -0.6466 C.3       1 <0>         0.0733
     18 C7          5.7507    0.5098   -0.1039 C.2       1 <0>         0.3878
     19 C8         -1.9957    0.0270   -0.2367 C.ar      1 <0>        -0.0217
     20 C9         -2.4069    1.0216    0.6433 C.ar      1 <0>        -0.0529
     21 C10        -2.9063   -0.8951   -0.7404 C.ar      1 <0>        -0.0529
     22 C11        -3.7466    1.0950    1.0247 C.ar      1 <0>        -0.0193
     23 C12        -4.2460   -0.8213   -0.3590 C.ar      1 <0>        -0.0193
     24 C13        -4.6661    0.1735    0.5236 C.ar      1 <0>         0.1300
     25 C14        -6.9526    0.4438   -0.1182 C.3       1 <0>         0.5752
     26 H1          1.6111   -1.4414   -1.0822 H         1 <0>         0.0648
     27 H2          1.9460    0.9483   -0.9621 H         1 <0>         0.0520
     28 H3          1.8689    0.9606    0.8165 H         1 <0>         0.0520
     29 H4          2.0779   -1.5652    1.9491 H         1 <0>         0.0724
     30 H5          1.7633   -2.9225    0.8845 H         1 <0>         0.0724
     31 H6          4.3048    2.1776   -0.5802 H         1 <0>         0.0898
     32 H7         -0.4729   -0.4503   -1.6663 H         1 <0>         0.0610
     33 H8         -0.1560    0.9667   -0.6546 H         1 <0>         0.0610
     34 H9         -1.6990    1.7429    1.0422 H         1 <0>         0.0622
     35 H10        -2.5889   -1.6763   -1.4255 H         1 <0>         0.0622
     36 H11        -4.0682    1.8722    1.7127 H         1 <0>         0.0654
     37 H12        -4.9502   -1.5498   -0.7512 H         1 <0>         0.0654
@<TRIPOS>BOND
     1    1   25 1
     2    2   25 1
     3    3   25 1
     4    4   12 1
     5    4   17 1
     6    5   14 1
     7    5   15 1
     8    6   24 1
     9    6   25 1
    10    7   11 1
    11    8   11 2
    12    9   13 1
    13    9   15 1
    14    9   16 2
    15   10   15 1
    16   10   18 2
    17   11   18 1
    18   12   13 1
    19   12   14 1
    20   12   26 1
    21   13   27 1
    22   13   28 1
    23   14   29 1
    24   14   30 1
    25   16   18 1
    26   16   31 1
    27   17   19 1
    28   17   32 1
    29   17   33 1
    30   19   20 ar
    31   19   21 ar
    32   20   22 ar
    33   20   34 1
    34   21   23 ar
    35   21   35 1
    36   22   24 ar
    37   22   36 1
    38   23   24 ar
    39   23   37 1
