@<TRIPOS>MOLECULE
DB05990
   74    77     0     0     0
SMALL
USER_CHARGES

@<TRIPOS>ATOM
      1 O1         -1.3383   -1.8697   -1.3715 O.3       1 <0>        -0.3912
      2 O2         -4.5277    1.5302   -3.1653 O.3       1 <0>        -0.3918
      3 O3          7.0112   -0.6632   -3.2079 O.3       1 <0>        -0.4806
      4 O4          7.7809   -1.3707   -1.1921 O.2       1 <0>        -0.2510
      5 C1         -0.6154   -0.6096    0.5736 C.3       1 <0>        -0.0080
      6 C2         -1.1173    0.7695    0.0471 C.3       1 <0>        -0.0299
      7 C3          0.8600   -0.7731    0.1749 C.3       1 <0>        -0.0299
      8 C4          1.7724    0.3283    0.7558 C.3       1 <0>        -0.0258
      9 C5         -2.6378    1.0398    0.3692 C.3       1 <0>        -0.0256
     10 C6         -3.5384   -0.1890   -0.0400 C.3       1 <0>        -0.0279
     11 C7          3.1369   -0.1726    0.2219 C.3       1 <0>        -0.0328
     12 C8         -1.4875   -1.7604    0.0402 C.3       1 <0>         0.0617
     13 C9         -0.1765    1.9324    0.4775 C.3       1 <0>        -0.0489
     14 C10         1.3085    1.6700    0.1731 C.3       1 <0>        -0.0468
     15 C11        -2.9567   -1.5490    0.4326 C.3       1 <0>        -0.0115
     16 C12         1.5840   -2.0664    0.5387 C.3       1 <0>        -0.0491
     17 C13         3.0772   -1.7019    0.4433 C.3       1 <0>        -0.0492
     18 C14        -3.0841    2.3226   -0.4119 C.3       1 <0>        -0.0448
     19 C15        -3.8941   -0.1057   -1.5349 C.3       1 <0>        -0.0232
     20 C16         1.7727    0.4001    2.3034 C.3       1 <0>        -0.0590
     21 C17        -2.8542    1.3039    1.8813 C.3       1 <0>        -0.0590
     22 C18         4.3806    0.4649    0.8246 C.3       1 <0>        -0.0400
     23 C19        -4.5424    2.2775   -0.8588 C.3       1 <0>        -0.0263
     24 C20        -4.7810    1.1139   -1.8246 C.3       1 <0>         0.0556
     25 C21        -3.8301   -2.7423    0.0265 C.3       1 <0>        -0.0504
     26 C22         5.6496   -0.1716    0.2213 C.3       1 <0>        -0.0401
     27 C23         4.3453    1.9827    0.6182 C.3       1 <0>        -0.0621
     28 C24        -5.2287   -2.6129    0.5915 C.3       1 <0>        -0.0649
     29 C25         5.7229   -0.0733   -1.3037 C.3       1 <0>         0.0450
     30 C26         6.9430   -0.7759   -1.8555 C.2       1 <0>         0.3047
     31 H1         -0.6930   -0.6283    1.6661 H         1 <0>         0.0331
     32 H2         -1.0348    0.7253   -1.0496 H         1 <0>         0.0310
     33 H3          0.9017   -0.7030   -0.9250 H         1 <0>         0.0310
     34 H4         -4.4901   -0.0722    0.4976 H         1 <0>         0.0310
     35 H5          3.1237    0.0071   -0.8613 H         1 <0>         0.0309
     36 H6         -1.1326   -2.7024    0.4758 H         1 <0>         0.0599
     37 H7         -0.2833    2.1318    1.5480 H         1 <0>         0.0268
     38 H8         -0.4662    2.8568   -0.0352 H         1 <0>         0.0268
     39 H9          1.4510    1.6838   -0.9150 H         1 <0>         0.0271
     40 H10         1.8601    2.5211    0.5736 H         1 <0>         0.0271
     41 H11        -2.9703   -1.5290    1.5322 H         1 <0>         0.0328
     42 H12         1.3316   -2.8835   -0.1447 H         1 <0>         0.0268
     43 H13         1.3346   -2.3941    1.5540 H         1 <0>         0.0268
     44 H14         3.5845   -2.0094    1.3648 H         1 <0>         0.0268
     45 H15         3.5519   -2.2343   -0.3880 H         1 <0>         0.0268
     46 H16        -2.4691    2.4544   -1.3121 H         1 <0>         0.0271
     47 H17        -2.9208    3.2206    0.1965 H         1 <0>         0.0271
     48 H18        -2.9860   -0.0635   -2.1475 H         1 <0>         0.0293
     49 H19        -4.4376   -0.9897   -1.8814 H         1 <0>         0.0293
     50 H20         2.1701   -0.5104    2.7629 H         1 <0>         0.0235
     51 H21         2.3782    1.2355    2.6674 H         1 <0>         0.0235
     52 H22         0.7718    0.5468    2.7180 H         1 <0>         0.0235
     53 H23        -2.4856    0.4837    2.5032 H         1 <0>         0.0235
     54 H24        -2.3534    2.2185    2.2139 H         1 <0>         0.0235
     55 H25        -3.9186    1.4341    2.1087 H         1 <0>         0.0235
     56 H26         4.4271    0.2754    1.9041 H         1 <0>         0.0301
     57 H27        -5.1846    2.1670    0.0231 H         1 <0>         0.0290
     58 H28        -4.8068    3.2305   -1.3316 H         1 <0>         0.0290
     59 H29        -5.8364    0.8216   -1.7738 H         1 <0>         0.0593
     60 H30        -3.3833   -3.6598    0.4306 H         1 <0>         0.0266
     61 H31        -3.8745   -2.8812   -1.0578 H         1 <0>         0.0266
     62 H32        -1.7528   -2.7027   -1.6516 H         1 <0>         0.2098
     63 H33         6.5343    0.3133    0.6554 H         1 <0>         0.0273
     64 H34         5.7197   -1.2232    0.5258 H         1 <0>         0.0273
     65 H35         4.0102    2.2632   -0.3851 H         1 <0>         0.0233
     66 H36         3.7318    2.4810    1.3712 H         1 <0>         0.0233
     67 H37         5.3508    2.4015    0.7465 H         1 <0>         0.0233
     68 H38        -5.2130   -2.4112    1.6674 H         1 <0>         0.0230
     69 H39        -5.8040   -1.8256    0.0961 H         1 <0>         0.0230
     70 H40        -5.7766   -3.5491    0.4393 H         1 <0>         0.0230
     71 H41        -5.1311    2.2667   -3.3629 H         1 <0>         0.2098
     72 H42         4.8666   -0.5568   -1.7804 H         1 <0>         0.0378
     73 H43         5.7671    0.9754   -1.6149 H         1 <0>         0.0378
     74 H44         7.8025   -1.1140   -3.5727 H         1 <0>         0.2951
@<TRIPOS>BOND
     1    1   12 1
     2    1   62 1
     3    2   24 1
     4    2   71 1
     5    3   30 1
     6    3   74 1
     7    4   30 2
     8    5    6 1
     9    5    7 1
    10    5   12 1
    11    5   31 1
    12    6    9 1
    13    6   13 1
    14    6   32 1
    15    7    8 1
    16    7   16 1
    17    7   33 1
    18    8   11 1
    19    8   14 1
    20    8   20 1
    21    9   10 1
    22    9   18 1
    23    9   21 1
    24   10   15 1
    25   10   19 1
    26   10   34 1
    27   11   17 1
    28   11   22 1
    29   11   35 1
    30   12   15 1
    31   12   36 1
    32   13   14 1
    33   13   37 1
    34   13   38 1
    35   14   39 1
    36   14   40 1
    37   15   25 1
    38   15   41 1
    39   16   17 1
    40   16   42 1
    41   16   43 1
    42   17   44 1
    43   17   45 1
    44   18   23 1
    45   18   46 1
    46   18   47 1
    47   19   24 1
    48   19   48 1
    49   19   49 1
    50   20   50 1
    51   20   51 1
    52   20   52 1
    53   21   53 1
    54   21   54 1
    55   21   55 1
    56   22   26 1
    57   22   27 1
    58   22   56 1
    59   23   24 1
    60   23   57 1
    61   23   58 1
    62   24   59 1
    63   25   28 1
    64   25   60 1
    65   25   61 1
    66   26   29 1
    67   26   63 1
    68   26   64 1
    69   27   65 1
    70   27   66 1
    71   27   67 1
    72   28   68 1
    73   28   69 1
    74   28   70 1
    75   29   30 1
    76   29   72 1
    77   29   73 1
