@<TRIPOS>MOLECULE
DB05271
   47    49     0     0     0
SMALL
USER_CHARGES

@<TRIPOS>ATOM
      1 S1          4.5876   -1.1866   -1.5594 S.3       1 <0>        -0.1016
      2 O1         -4.6225   -2.8416   -0.0580 O.3       1 <0>        -0.5065
      3 N1          0.6427    0.8824    0.7932 N.3       1 <0>        -0.2988
      4 C1         -0.5438    0.2131    0.2620 C.3       1 <0>         0.0147
      5 C2         -0.8740   -1.0191    1.1065 C.3       1 <0>        -0.0329
      6 C3         -1.7397    1.1749    0.2479 C.3       1 <0>        -0.0116
      7 C4         -2.0443   -1.7866    0.4912 C.3       1 <0>        -0.0225
      8 C5         -3.0492    0.4865   -0.0534 C.ar      1 <0>        -0.0393
      9 C6         -3.2026   -0.9032    0.1016 C.ar      1 <0>        -0.0027
     10 C7          1.7831   -0.0331    0.8072 C.3       1 <0>         0.0036
     11 C8          0.9537    2.0740    0.0044 C.3       1 <0>        -0.0011
     12 C9          2.0771   -0.5661   -0.5965 C.3       1 <0>        -0.0086
     13 C10         2.1720    2.7893    0.5829 C.3       1 <0>        -0.0430
     14 C11        -4.1530    1.2626   -0.4393 C.ar      1 <0>        -0.0580
     15 C12        -4.4471   -1.4928   -0.1681 C.ar      1 <0>         0.1203
     16 C13        -5.3872    0.6657   -0.6943 C.ar      1 <0>        -0.0580
     17 C14        -5.5334   -0.7118   -0.5612 C.ar      1 <0>        -0.0199
     18 C15         3.2382   -1.5295   -0.5870 C.2       1 <0>        -0.0090
     19 C16         2.5038    4.0455   -0.2076 C.3       1 <0>        -0.0641
     20 C17         3.3516   -2.6820    0.1249 C.2       1 <0>        -0.0515
     21 C18         4.5989   -3.3218   -0.1309 C.2       1 <0>        -0.0545
     22 C19         5.3683   -2.6152   -1.0287 C.2       1 <0>        -0.0241
     23 H1         -0.4103   -0.0935   -0.7830 H         1 <0>         0.0466
     24 H2         -1.1274   -0.7173    2.1318 H         1 <0>         0.0284
     25 H3         -0.0626   -1.7475    1.1746 H         1 <0>         0.0284
     26 H4         -1.6046    1.9404   -0.5254 H         1 <0>         0.0328
     27 H5         -1.8426    1.6783    1.2185 H         1 <0>         0.0328
     28 H6         -2.3730   -2.5437    1.2133 H         1 <0>         0.0315
     29 H7         -1.6993   -2.3119   -0.4087 H         1 <0>         0.0315
     30 H8          2.6789    0.4226    1.2407 H         1 <0>         0.0430
     31 H9          1.6216   -0.8495    1.5184 H         1 <0>         0.0430
     32 H10         1.0753    1.8803   -1.0670 H         1 <0>         0.0426
     33 H11         0.1424    2.8052    0.0905 H         1 <0>         0.0426
     34 H12         2.2906    0.2409   -1.3041 H         1 <0>         0.0331
     35 H13         1.2445   -1.1450   -1.0098 H         1 <0>         0.0331
     36 H14         2.0011    3.0551    1.6329 H         1 <0>         0.0275
     37 H15         3.0791    2.1816    0.5344 H         1 <0>         0.0275
     38 H16        -4.0555    2.3406   -0.5427 H         1 <0>         0.0620
     39 H17        -6.2331    1.2759   -0.9964 H         1 <0>         0.0619
     40 H18        -6.4995   -1.1645   -0.7680 H         1 <0>         0.0654
     41 H19         2.7250    3.8057   -1.2527 H         1 <0>         0.0230
     42 H20         1.6699    4.7544   -0.1865 H         1 <0>         0.0230
     43 H21         3.3806    4.5428    0.2193 H         1 <0>         0.0230
     44 H22        -5.5419   -3.0643   -0.2838 H         1 <0>         0.2921
     45 H23         2.5943   -3.0680    0.7950 H         1 <0>         0.0626
     46 H24         4.9150   -4.2535    0.3198 H         1 <0>         0.0623
     47 H25         6.3514   -2.8697   -1.3987 H         1 <0>         0.0693
@<TRIPOS>BOND
     1    1   18 1
     2    1   22 1
     3    2   15 1
     4    2   44 1
     5    3    4 1
     6    3   10 1
     7    3   11 1
     8    4    5 1
     9    4    6 1
    10    4   23 1
    11    5    7 1
    12    5   24 1
    13    5   25 1
    14    6    8 1
    15    6   26 1
    16    6   27 1
    17    7    9 1
    18    7   28 1
    19    7   29 1
    20    8    9 ar
    21    8   14 ar
    22    9   15 ar
    23   10   12 1
    24   10   30 1
    25   10   31 1
    26   11   13 1
    27   11   32 1
    28   11   33 1
    29   12   18 1
    30   12   34 1
    31   12   35 1
    32   13   19 1
    33   13   36 1
    34   13   37 1
    35   14   16 ar
    36   14   38 1
    37   15   17 ar
    38   16   17 ar
    39   16   39 1
    40   17   40 1
    41   18   20 2
    42   19   41 1
    43   19   42 1
    44   19   43 1
    45   20   21 1
    46   20   45 1
    47   21   22 2
    48   21   46 1
    49   22   47 1
