@<TRIPOS>MOLECULE
DB05316
   65    67     0     0     0
SMALL
USER_CHARGES

@<TRIPOS>ATOM
      1 F1         -1.2080   -4.9336   -0.2269 F         1 <0>        -0.2055
      2 O1          1.9305    2.0875    0.7098 O.2       1 <0>        -0.2526
      3 O2         -4.8173    1.8028   -0.4329 O.3       1 <0>        -0.4917
      4 N1          5.1383    1.0457   -1.9052 N.3       1 <0>        -0.3052
      5 N2          2.5652   -0.0791    1.2640 N.am      1 <0>        -0.2782
      6 N3          0.7965    1.0162    2.3990 N.am      1 <0>        -0.2951
      7 C1          3.6115   -0.1674    0.2760 C.3       1 <0>         0.0301
      8 C2          3.0422   -0.0191   -1.1348 C.3       1 <0>        -0.0214
      9 C3          4.6919    0.8859    0.5226 C.3       1 <0>        -0.0214
     10 C4          4.1547   -0.0097   -2.1846 C.3       1 <0>         0.0003
     11 C5          5.7502    0.8645   -0.5817 C.3       1 <0>         0.0003
     12 C6          2.3657   -1.2619    2.1073 C.3       1 <0>         0.0415
     13 C7          6.1671    1.0742   -2.9448 C.3       1 <0>        -0.0128
     14 C8          1.7755    1.0834    1.4115 C.2       1 <0>         0.3030
     15 C9          1.4126   -2.2411    1.4853 C.ar      1 <0>        -0.0299
     16 C10        -0.1033    2.1145    2.6701 C.3       1 <0>         0.0383
     17 C11         1.8940   -3.2450    0.6449 C.ar      1 <0>        -0.0544
     18 C12         0.0457   -2.1468    1.7471 C.ar      1 <0>        -0.0544
     19 C13        -1.3556    2.0312    1.8461 C.ar      1 <0>        -0.0300
     20 C14         1.0089   -4.1547    0.0666 C.ar      1 <0>        -0.0261
     21 C15        -0.8395   -3.0563    1.1687 C.ar      1 <0>        -0.0261
     22 C16        -0.3580   -4.0603    0.3284 C.ar      1 <0>         0.1234
     23 C17        -1.4072    2.6418    0.5929 C.ar      1 <0>        -0.0536
     24 C18        -2.4675    1.3439    2.3331 C.ar      1 <0>        -0.0536
     25 C19        -6.3518    0.3174   -1.5762 C.3       1 <0>        -0.0124
     26 C20        -3.6819    1.8775    0.3141 C.ar      1 <0>         0.1205
     27 C21        -2.5703    2.5649   -0.1731 C.ar      1 <0>        -0.0196
     28 C22        -3.6306    1.2670    1.5672 C.ar      1 <0>        -0.0196
     29 C23        -5.6293    0.6417   -0.2657 C.3       1 <0>         0.0919
     30 C24        -5.3585    0.0495   -2.7089 C.3       1 <0>        -0.0596
     31 C25        -7.2805   -0.8805   -1.3905 C.3       1 <0>        -0.0596
     32 H1          4.0911   -1.1525    0.3405 H         1 <0>         0.0502
     33 H2          2.3514   -0.8441   -1.3479 H         1 <0>         0.0295
     34 H3          2.4582    0.8995   -1.2531 H         1 <0>         0.0295
     35 H4          4.2801    1.8990    0.5786 H         1 <0>         0.0295
     36 H5          5.1732    0.7011    1.4913 H         1 <0>         0.0295
     37 H6          3.6965    0.1597   -3.1667 H         1 <0>         0.0427
     38 H7          4.6375   -0.9954   -2.2174 H         1 <0>         0.0427
     39 H8          6.4634    1.6750   -0.3876 H         1 <0>         0.0427
     40 H9          6.3108   -0.0787   -0.5359 H         1 <0>         0.0427
     41 H10         2.0530   -1.0012    3.1221 H         1 <0>         0.0514
     42 H11         3.3410   -1.7422    2.2661 H         1 <0>         0.0514
     43 H12         5.7170    1.2590   -3.9265 H         1 <0>         0.0391
     44 H13         6.7315    0.1360   -2.9949 H         1 <0>         0.0391
     45 H14         6.8732    1.8926   -2.7651 H         1 <0>         0.0391
     46 H15         0.7008    0.2192    3.0087 H         1 <0>         0.1506
     47 H16         0.4101    3.0667    2.4914 H         1 <0>         0.0512
     48 H17        -0.3460    2.0844    3.7386 H         1 <0>         0.0512
     49 H18         2.9561   -3.3339    0.4336 H         1 <0>         0.0622
     50 H19        -0.3612   -1.3971    2.4147 H         1 <0>         0.0622
     51 H20         1.3833   -4.9367   -0.5872 H         1 <0>         0.0646
     52 H21        -1.9033   -2.9865    1.3763 H         1 <0>         0.0646
     53 H22        -0.5514    3.1847    0.2017 H         1 <0>         0.0622
     54 H23        -2.4403    0.8675    3.3096 H         1 <0>         0.0622
     55 H24        -6.9532    1.1882   -1.8671 H         1 <0>         0.0328
     56 H25        -2.6051    3.0429   -1.1483 H         1 <0>         0.0654
     57 H26        -4.4822    0.7475    1.9964 H         1 <0>         0.0654
     58 H27        -6.3625    0.8403    0.5250 H         1 <0>         0.0699
     59 H28        -5.0304   -0.2355    0.0144 H         1 <0>         0.0699
     60 H29        -4.7317    0.9260   -2.9023 H         1 <0>         0.0233
     61 H30        -4.6999   -0.7921   -2.4684 H         1 <0>         0.0233
     62 H31        -5.8864   -0.1893   -3.6384 H         1 <0>         0.0233
     63 H32        -6.7206   -1.7798   -1.1117 H         1 <0>         0.0233
     64 H33        -7.8274   -1.0957   -2.3146 H         1 <0>         0.0233
     65 H34        -8.0176   -0.6829   -0.6050 H         1 <0>         0.0233
@<TRIPOS>BOND
     1    1   22 1
     2    2   14 2
     3    3   26 1
     4    3   29 1
     5    4   10 1
     6    4   11 1
     7    4   13 1
     8    5    7 1
     9    5   12 1
    10    5   14 am
    11    6   14 am
    12    6   16 1
    13    6   46 1
    14    7    8 1
    15    7    9 1
    16    7   32 1
    17    8   10 1
    18    8   33 1
    19    8   34 1
    20    9   11 1
    21    9   35 1
    22    9   36 1
    23   10   37 1
    24   10   38 1
    25   11   39 1
    26   11   40 1
    27   12   15 1
    28   12   41 1
    29   12   42 1
    30   13   43 1
    31   13   44 1
    32   13   45 1
    33   15   17 ar
    34   15   18 ar
    35   16   19 1
    36   16   47 1
    37   16   48 1
    38   17   20 ar
    39   17   49 1
    40   18   21 ar
    41   18   50 1
    42   19   23 ar
    43   19   24 ar
    44   20   22 ar
    45   20   51 1
    46   21   22 ar
    47   21   52 1
    48   23   27 ar
    49   23   53 1
    50   24   28 ar
    51   24   54 1
    52   25   29 1
    53   25   30 1
    54   25   31 1
    55   25   55 1
    56   26   27 ar
    57   26   28 ar
    58   27   56 1
    59   28   57 1
    60   29   58 1
    61   29   59 1
    62   30   60 1
    63   30   61 1
    64   30   62 1
    65   31   63 1
    66   31   64 1
    67   31   65 1
