@<TRIPOS>MOLECULE
DB05351
   39    41     0     0     0
SMALL
USER_CHARGES

@<TRIPOS>ATOM
      1 S1         -0.8438   -0.7171   -0.9711 S.o       1 <0>         0.0954
      2 F1          4.9137    2.6045   -1.2170 F         1 <0>        -0.1671
      3 F2          6.7852    1.7653   -1.9595 F         1 <0>        -0.1671
      4 F3          6.6047    2.3539    0.1373 F         1 <0>        -0.1671
      5 O1          4.5633    0.5013    0.5544 O.3       1 <0>        -0.4827
      6 O2         -0.7863   -2.1369   -1.4999 O.2       1 <0>        -0.2488
      7 N1         -3.6081   -0.6988   -1.3851 N.pl3     1 <0>        -0.3310
      8 N2         -2.9272    0.4218    0.4095 N.2       1 <0>        -0.2200
      9 N3          1.5921   -2.3959    0.8024 N.ar      1 <0>        -0.2585
     10 C1         -0.1643   -0.7480    0.7130 C.3       1 <0>         0.0734
     11 C2          1.2993   -1.0822    0.7146 C.ar      1 <0>         0.0603
     12 C3          2.2393   -0.0729    0.6295 C.ar      1 <0>         0.0134
     13 C4         -2.5472   -0.3020   -0.6195 C.cat     1 <0>         0.1981
     14 C5         -4.7486   -0.1974   -0.8121 C.ar      1 <0>         0.0669
     15 C6         -4.2972    0.4981    0.3062 C.ar      1 <0>         0.0900
     16 C7          3.5808   -0.4386    0.6350 C.ar      1 <0>         0.1270
     17 C8          1.8420    1.3616    0.5352 C.3       1 <0>        -0.0345
     18 C9         -6.0954   -0.2895   -1.1653 C.ar      1 <0>        -0.0362
     19 C10         3.9291   -1.7819    0.7245 C.ar      1 <0>        -0.0015
     20 C11        -5.2306    1.1460    1.1327 C.ar      1 <0>        -0.0342
     21 C12         2.9063   -2.7130    0.8053 C.ar      1 <0>         0.0314
     22 C13        -7.0106    0.3614   -0.3316 C.ar      1 <0>        -0.0597
     23 C14        -6.5881    1.0669    0.7974 C.ar      1 <0>        -0.0596
     24 C15         5.4545    0.4139   -0.5558 C.3       1 <0>         0.1842
     25 C16         5.9480    1.7949   -0.9011 C.3       1 <0>         0.4236
     26 H1         -0.7111   -1.5160    1.2736 H         1 <0>         0.0470
     27 H2         -0.3700    0.2041    1.2100 H         1 <0>         0.0470
     28 H3         -3.5623   -1.2616   -2.2242 H         1 <0>         0.1679
     29 H4          1.1555    1.5272   -0.3007 H         1 <0>         0.0279
     30 H5          1.3690    1.6893    1.4669 H         1 <0>         0.0279
     31 H6          2.6952    2.0252    0.3630 H         1 <0>         0.0279
     32 H7         -6.4209   -0.8376   -2.0421 H         1 <0>         0.0639
     33 H8          4.9643   -2.1046    0.7396 H         1 <0>         0.0669
     34 H9         -4.9123    1.6966    2.0122 H         1 <0>         0.0639
     35 H10         3.1248   -3.7733    0.8786 H         1 <0>         0.0831
     36 H11        -8.0710    0.3170   -0.5677 H         1 <0>         0.0618
     37 H12        -7.3232    1.5625    1.4263 H         1 <0>         0.0618
     38 H13         4.9510   -0.0176   -1.4297 H         1 <0>         0.0788
     39 H14         6.3000   -0.2270   -0.2845 H         1 <0>         0.0788
@<TRIPOS>BOND
     1    1    6 2
     2    1   10 1
     3    1   13 1
     4    2   25 1
     5    3   25 1
     6    4   25 1
     7    5   16 1
     8    5   24 1
     9    7   13 1
    10    7   14 2
    11    7   28 1
    12    8   13 1
    13    8   15 2
    14    9   11 ar
    15    9   21 ar
    16   10   11 1
    17   10   26 1
    18   10   27 1
    19   11   12 ar
    20   12   16 ar
    21   12   17 1
    22   14   15 ar
    23   14   18 ar
    24   15   20 ar
    25   16   19 ar
    26   17   29 1
    27   17   30 1
    28   17   31 1
    29   18   22 ar
    30   18   32 1
    31   19   21 ar
    32   19   33 1
    33   20   23 ar
    34   20   34 1
    35   21   35 1
    36   22   23 ar
    37   22   36 1
    38   23   37 1
    39   24   25 1
    40   24   38 1
    41   24   39 1
