@<TRIPOS>MOLECULE
DB05018
   24    24     0     0     0
SMALL
USER_CHARGES

@<TRIPOS>ATOM
      1 O1         -0.4609    1.0815   -1.5785 O.3       1 <0>        -0.3875
      2 O2          1.6225    2.2508   -0.2121 O.3       1 <0>        -0.3866
      3 O3          3.0999   -0.1195    0.5063 O.3       1 <0>        -0.3879
      4 O4         -3.2725    0.5660    0.3606 O.3       1 <0>        -0.3934
      5 N1         -0.2842   -1.4960   -0.1681 N.3       1 <0>        -0.3064
      6 C1         -0.4294    0.9847   -0.1529 C.3       1 <0>         0.1009
      7 C2         -1.0629   -0.3413    0.3113 C.3       1 <0>         0.0596
      8 C3          1.0252    1.0712    0.3200 C.3       1 <0>         0.1095
      9 C4          1.8177   -0.1623   -0.1172 C.3       1 <0>         0.0959
     10 C5          1.0979   -1.4438    0.3081 C.3       1 <0>         0.0249
     11 C6         -2.5059   -0.4983   -0.1698 C.3       1 <0>         0.0620
     12 H1         -0.9896    1.8446    0.2303 H         1 <0>         0.0636
     13 H2         -1.0706   -0.3498    1.4100 H         1 <0>         0.0509
     14 H3          1.0621    1.1604    1.4131 H         1 <0>         0.0646
     15 H4          1.9909   -0.1468   -1.1995 H         1 <0>         0.0633
     16 H5          1.6432   -2.3136   -0.0772 H         1 <0>         0.0450
     17 H6          1.1225   -1.5515    1.4004 H         1 <0>         0.0450
     18 H7         -0.2932   -1.5209   -1.1870 H         1 <0>         0.1224
     19 H8         -2.9425   -1.4423    0.1745 H         1 <0>         0.0573
     20 H9         -2.5837   -0.4695   -1.2617 H         1 <0>         0.0573
     21 H10        -0.0278    0.2994   -1.9563 H         1 <0>         0.2100
     22 H11         1.0939    3.0089    0.0900 H         1 <0>         0.2100
     23 H12         3.5883   -0.9122    0.2254 H         1 <0>         0.2099
     24 H13        -3.2407    0.5005    1.3303 H         1 <0>         0.2095
@<TRIPOS>BOND
     1    1    6 1
     2    1   21 1
     3    2    8 1
     4    2   22 1
     5    3    9 1
     6    3   23 1
     7    4   11 1
     8    4   24 1
     9    5    7 1
    10    5   10 1
    11    5   18 1
    12    6    7 1
    13    6    8 1
    14    6   12 1
    15    7   11 1
    16    7   13 1
    17    8    9 1
    18    8   14 1
    19    9   10 1
    20    9   15 1
    21   10   16 1
    22   10   17 1
    23   11   19 1
    24   11   20 1
