@<TRIPOS>MOLECULE
DB05676
   56    58     0     0     0
SMALL
USER_CHARGES

@<TRIPOS>ATOM
      1 S1         -1.7827    3.4336   -1.5223 S.o2      1 <0>        -0.0317
      2 O1         -2.7835    2.4013   -1.3169 O.2       1 <0>        -0.1745
      3 O2         -1.9125    4.7301   -0.8807 O.2       1 <0>        -0.1745
      4 O3         -0.6100   -0.3749   -0.6560 O.2       1 <0>        -0.2694
      5 O4         -2.3545    2.6981    2.3353 O.2       1 <0>        -0.2695
      6 O5          3.9230   -0.0569   -0.8617 O.3       1 <0>        -0.4886
      7 O6          4.9320    0.2468    1.7106 O.3       1 <0>        -0.4915
      8 O7         -4.0311   -4.4112   -0.1027 O.2       1 <0>        -0.2758
      9 N1         -1.1784    1.4362    0.7315 N.am      1 <0>        -0.2250
     10 N2         -2.5565   -2.5811   -0.2950 N.am      1 <0>        -0.2850
     11 C1         -0.1256    2.3693    0.3827 C.3       1 <0>         0.0785
     12 C2         -0.2043    2.7630   -1.0938 C.3       1 <0>         0.0885
     13 C3          1.2320    1.7982    0.7357 C.ar      1 <0>        -0.0213
     14 C4         -1.3036    0.1806    0.1756 C.2       1 <0>         0.2562
     15 C5         -2.1654    1.7062    1.6561 C.2       1 <0>         0.2545
     16 C6         -2.4904   -0.4086    0.7949 C.ar      1 <0>         0.0706
     17 C7         -3.0116    0.5138    1.6900 C.ar      1 <0>         0.0512
     18 C8          1.9552    1.1288   -0.2352 C.ar      1 <0>        -0.0113
     19 C9          1.7175    1.9593    2.0210 C.ar      1 <0>        -0.0531
     20 C10        -3.0709   -1.6452    0.5998 C.ar      1 <0>         0.0463
     21 C11        -1.6469    3.7107   -3.2729 C.3       1 <0>         0.0545
     22 C12        -4.1404    0.2486    2.4375 C.ar      1 <0>        -0.0488
     23 C13         3.2058    0.6032    0.0899 C.ar      1 <0>         0.1622
     24 C14         2.9679    1.4334    2.3462 C.ar      1 <0>        -0.0160
     25 C15        -4.2163   -1.9359    1.3463 C.ar      1 <0>        -0.0397
     26 C16         3.7121    0.7555    1.3807 C.ar      1 <0>         0.1615
     27 C17        -4.7460   -0.9981    2.2563 C.ar      1 <0>        -0.0593
     28 C18        -3.0449   -3.8634   -0.5847 C.2       1 <0>         0.2141
     29 C19         3.3238   -1.2163   -1.4370 C.3       1 <0>         0.0870
     30 C20         4.9636   -1.0881    2.2117 C.3       1 <0>         0.0790
     31 C21        -2.1990   -4.5655   -1.6171 C.3       1 <0>         0.0125
     32 C22         4.4147   -2.1773   -1.8590 C.3       1 <0>        -0.0307
     33 H1         -0.2743    3.2847    0.9714 H         1 <0>         0.0571
     34 H2         -0.0927    1.9164   -1.7774 H         1 <0>         0.0522
     35 H3          0.5501    3.5175   -1.3431 H         1 <0>         0.0522
     36 H4          1.6022    0.9881   -1.2488 H         1 <0>         0.0659
     37 H5          1.1443    2.4840    2.7797 H         1 <0>         0.0622
     38 H6         -1.4614    2.7559   -3.7682 H         1 <0>         0.0464
     39 H7         -2.5889    4.1372   -3.6237 H         1 <0>         0.0464
     40 H8         -0.8284    4.4091   -3.4565 H         1 <0>         0.0464
     41 H9         -4.5475    0.9689    3.1373 H         1 <0>         0.0625
     42 H10         3.3561    1.5560    3.3538 H         1 <0>         0.0655
     43 H11        -4.7572   -2.8706    1.2792 H         1 <0>         0.0636
     44 H12        -5.6379   -1.2494    2.8247 H         1 <0>         0.0618
     45 H13        -1.7209   -2.2893   -0.7971 H         1 <0>         0.1548
     46 H14         2.7343   -0.9168   -2.3104 H         1 <0>         0.0694
     47 H15         2.6619   -1.7150   -0.7178 H         1 <0>         0.0694
     48 H16         4.5151   -1.7843    1.4965 H         1 <0>         0.0660
     49 H17         4.4388   -1.1464    3.1704 H         1 <0>         0.0660
     50 H18         6.0083   -1.3712    2.3669 H         1 <0>         0.0660
     51 H19        -2.2255   -4.0072   -2.5570 H         1 <0>         0.0323
     52 H20        -2.5859   -5.5735   -1.7905 H         1 <0>         0.0323
     53 H21        -1.1664   -4.6382   -1.2642 H         1 <0>         0.0323
     54 H22         3.9892   -3.0755   -2.3153 H         1 <0>         0.0262
     55 H23         5.0900   -1.7020   -2.5781 H         1 <0>         0.0262
     56 H24         5.0237   -2.4728   -0.9986 H         1 <0>         0.0262
@<TRIPOS>BOND
     1    1    2 2
     2    1    3 2
     3    1   12 1
     4    1   21 1
     5    4   14 2
     6    5   15 2
     7    6   23 1
     8    6   29 1
     9    7   26 1
    10    7   30 1
    11    8   28 2
    12    9   11 1
    13    9   14 am
    14    9   15 am
    15   10   20 1
    16   10   28 am
    17   10   45 1
    18   11   12 1
    19   11   13 1
    20   11   33 1
    21   12   34 1
    22   12   35 1
    23   13   18 ar
    24   13   19 ar
    25   14   16 1
    26   15   17 1
    27   16   17 ar
    28   16   20 ar
    29   17   22 ar
    30   18   23 ar
    31   18   36 1
    32   19   24 ar
    33   19   37 1
    34   20   25 ar
    35   21   38 1
    36   21   39 1
    37   21   40 1
    38   22   27 ar
    39   22   41 1
    40   23   26 ar
    41   24   26 ar
    42   24   42 1
    43   25   27 ar
    44   25   43 1
    45   27   44 1
    46   28   31 1
    47   29   32 1
    48   29   46 1
    49   29   47 1
    50   30   48 1
    51   30   49 1
    52   30   50 1
    53   31   51 1
    54   31   52 1
    55   31   53 1
    56   32   54 1
    57   32   55 1
    58   32   56 1
