@<TRIPOS>MOLECULE
DB05016
   30    32     0     0     0
SMALL
USER_CHARGES

@<TRIPOS>ATOM
      1 F1         -2.1712   -2.0932    0.0007 F         1 <0>        -0.2047
      2 O1         -1.5379    2.0187   -0.0005 O.3       1 <0>        -0.3324
      3 O2          5.6007   -1.9861   -0.0019 O.3       1 <0>        -0.4771
      4 O3          3.5700   -3.0073    0.0012 O.2       1 <0>        -0.2451
      5 N1         -0.4919    0.0381    0.0023 N.2       1 <0>        -0.1870
      6 N2         -0.1662    2.3025   -0.0003 N.2       1 <0>        -0.0557
      7 C1          1.8033    0.8778    0.0013 C.ar      1 <0>         0.0232
      8 C2          0.3823    1.0847    0.0010 C.2       1 <0>         0.2024
      9 C3         -2.9790    0.1436    0.0011 C.ar      1 <0>         0.0745
     10 C4         -1.6418    0.6639    0.0014 C.2       1 <0>         0.2615
     11 C5          2.3200   -0.4179    0.0013 C.ar      1 <0>        -0.0370
     12 C6          3.7004   -0.6184    0.0004 C.ar      1 <0>         0.0595
     13 C7          2.6671    1.9730    0.0003 C.ar      1 <0>        -0.0509
     14 C8          4.5641    0.4769   -0.0005 C.ar      1 <0>        -0.0477
     15 C9          4.0474    1.7726   -0.0005 C.ar      1 <0>        -0.0603
     16 C10        -3.2034   -1.2372    0.0011 C.ar      1 <0>         0.1357
     17 C11        -4.0713    1.0175    0.0000 C.ar      1 <0>        -0.0466
     18 C12        -4.5051   -1.7382   -0.0001 C.ar      1 <0>        -0.0257
     19 C13        -5.3731    0.5166   -0.0009 C.ar      1 <0>        -0.0609
     20 C14        -5.5900   -0.8613   -0.0011 C.ar      1 <0>        -0.0590
     21 C15         4.2395   -1.9691    0.0004 C.2       1 <0>         0.3368
     22 H1          1.6554   -1.2790    0.0019 H         1 <0>         0.0633
     23 H2          2.3015    2.9969    0.0000 H         1 <0>         0.0625
     24 H3          5.6449    0.3667   -0.0012 H         1 <0>         0.0626
     25 H4          4.7199    2.6255   -0.0013 H         1 <0>         0.0618
     26 H5         -3.9446    2.0974   -0.0000 H         1 <0>         0.0626
     27 H6         -4.6739   -2.8110   -0.0003 H         1 <0>         0.0646
     28 H7         -6.2182    1.1989   -0.0017 H         1 <0>         0.0618
     29 H8         -6.6035   -1.2515   -0.0020 H         1 <0>         0.0618
     30 H9          5.9543   -2.9011   -0.0025 H         1 <0>         0.2954
@<TRIPOS>BOND
     1    1   16 1
     2    2    6 1
     3    2   10 1
     4    3   21 1
     5    3   30 1
     6    4   21 2
     7    5    8 1
     8    5   10 2
     9    6    8 2
    10    7    8 1
    11    7   11 ar
    12    7   13 ar
    13    9   10 1
    14    9   16 ar
    15    9   17 ar
    16   11   12 ar
    17   11   22 1
    18   12   14 ar
    19   12   21 1
    20   13   15 ar
    21   13   23 1
    22   14   15 ar
    23   14   24 1
    24   15   25 1
    25   16   18 ar
    26   17   19 ar
    27   17   26 1
    28   18   20 ar
    29   18   27 1
    30   19   20 ar
    31   19   28 1
    32   20   29 1
