@<TRIPOS>MOLECULE
DB06702
   67    68     0     0     0
SMALL
USER_CHARGES

@<TRIPOS>ATOM
      1 O1          0.7808    2.4794   -0.7744 O.3       1 <0>        -0.4254
      2 O2          3.1091   -0.0876    4.4800 O.3       1 <0>        -0.3904
      3 O3         -0.7483    3.1571    0.8595 O.2       1 <0>        -0.2501
      4 N1         -1.8795   -1.8460    0.6312 N.3       1 <0>        -0.2975
      5 C1         -0.9801   -0.8036    0.1481 C.3       1 <0>         0.0003
      6 C2          0.3546   -1.4175   -0.2897 C.3       1 <0>        -0.0292
      7 C3          1.3603   -0.3347   -0.8014 C.3       1 <0>         0.0139
      8 C4         -2.5137   -2.5393   -0.4910 C.3       1 <0>         0.0050
      9 C5         -2.8960   -1.2780    1.5181 C.3       1 <0>         0.0050
     10 C6          1.8630    0.5751    0.2706 C.ar      1 <0>         0.0027
     11 C7          2.5008   -0.9449   -1.6316 C.ar      1 <0>        -0.0398
     12 C8         -3.6808   -1.7166   -1.0296 C.3       1 <0>        -0.0497
     13 C9         -2.9792   -3.9193   -0.0376 C.3       1 <0>        -0.0497
     14 C10        -2.3185   -1.1278    2.9219 C.3       1 <0>        -0.0497
     15 C11        -3.3791    0.0647    0.9773 C.3       1 <0>        -0.0497
     16 C12         1.5602    1.9366    0.2495 C.ar      1 <0>         0.1354
     17 C13         2.6428    0.0500    1.3012 C.ar      1 <0>        -0.0491
     18 C14         2.9384   -2.2430   -1.3679 C.ar      1 <0>        -0.0580
     19 C15         3.0989   -0.2006   -2.6484 C.ar      1 <0>        -0.0580
     20 C16         3.1197    0.8864    2.3103 C.ar      1 <0>        -0.0217
     21 C17         2.0374    2.7731    1.2587 C.ar      1 <0>        -0.0186
     22 C18         2.8171    2.2478    2.2891 C.ar      1 <0>        -0.0529
     23 C19         3.9738   -2.7965   -2.1212 C.ar      1 <0>        -0.0615
     24 C20         4.1341   -0.7541   -3.4017 C.ar      1 <0>        -0.0615
     25 C21         3.9533    0.3253    3.4124 C.3       1 <0>         0.0692
     26 C22         4.5716   -2.0520   -3.1381 C.ar      1 <0>        -0.0617
     27 C23        -0.3893    3.0761   -0.3082 C.2       1 <0>         0.3149
     28 C24        -1.1574    3.6305   -1.4966 C.3       1 <0>         0.0512
     29 C25        -1.9442    4.8639   -1.0695 C.3       1 <0>        -0.0525
     30 C26        -2.0824    2.5681   -2.0846 C.3       1 <0>        -0.0525
     31 H1         -1.3788   -0.2282   -0.6940 H         1 <0>         0.0427
     32 H2         -0.7441   -0.0861    0.9413 H         1 <0>         0.0427
     33 H3          0.1824   -2.1368   -1.0986 H         1 <0>         0.0287
     34 H4          0.7798   -1.9800    0.5519 H         1 <0>         0.0287
     35 H5          0.7818    0.2428   -1.5362 H         1 <0>         0.0399
     36 H6         -1.8090   -2.7157   -1.3107 H         1 <0>         0.0457
     37 H7         -3.7512   -1.9528    1.6396 H         1 <0>         0.0457
     38 H8         -4.1241   -2.3081   -1.8464 H         1 <0>         0.0245
     39 H9         -3.3715   -0.8080   -1.5520 H         1 <0>         0.0245
     40 H10        -4.5350   -1.5714   -0.3640 H         1 <0>         0.0245
     41 H11        -3.3575   -4.4905   -0.8932 H         1 <0>         0.0245
     42 H12        -2.1482   -4.4911    0.3913 H         1 <0>         0.0245
     43 H13        -3.7833   -3.8836    0.7036 H         1 <0>         0.0245
     44 H14        -1.4736   -0.4332    2.9702 H         1 <0>         0.0245
     45 H15        -3.0859   -0.7542    3.6094 H         1 <0>         0.0245
     46 H16        -1.9771   -2.0954    3.3077 H         1 <0>         0.0245
     47 H17        -2.8780    0.8839    1.5129 H         1 <0>         0.0245
     48 H18        -3.2769    0.3440   -0.0638 H         1 <0>         0.0245
     49 H19        -4.4431    0.1805    1.2234 H         1 <0>         0.0245
     50 H20         2.8805   -1.0101    1.3335 H         1 <0>         0.0625
     51 H21         2.5110   -2.8484   -0.5752 H         1 <0>         0.0620
     52 H22         2.7678    0.8119   -2.8635 H         1 <0>         0.0620
     53 H23         1.8277    3.8394    1.2478 H         1 <0>         0.0654
     54 H24         3.1849    2.9101    3.0684 H         1 <0>         0.0622
     55 H25         4.3176   -3.8057   -1.9138 H         1 <0>         0.0618
     56 H26         4.5999   -0.1744   -4.1933 H         1 <0>         0.0618
     57 H27         4.6612    1.0716    3.7895 H         1 <0>         0.0607
     58 H28         4.5346   -0.5368    3.0670 H         1 <0>         0.0607
     59 H29         5.3784   -2.4825   -3.7238 H         1 <0>         0.0618
     60 H30        -0.4315    3.9458   -2.2565 H         1 <0>         0.0408
     61 H31        -2.7071    4.6168   -0.3228 H         1 <0>         0.0237
     62 H32        -2.4479    5.3199   -1.9283 H         1 <0>         0.0237
     63 H33        -1.2812    5.6160   -0.6279 H         1 <0>         0.0237
     64 H34        -2.8401    2.2591   -1.3581 H         1 <0>         0.0237
     65 H35        -2.5975    2.9488   -2.9724 H         1 <0>         0.0237
     66 H36        -1.5173    1.6765   -2.3758 H         1 <0>         0.0237
     67 H37         3.6852   -0.4464    5.1764 H         1 <0>         0.2098
@<TRIPOS>BOND
     1    1   16 1
     2    1   27 1
     3    2   25 1
     4    2   67 1
     5    3   27 2
     6    4    5 1
     7    4    8 1
     8    4    9 1
     9    5    6 1
    10    5   31 1
    11    5   32 1
    12    6    7 1
    13    6   33 1
    14    6   34 1
    15    7   10 1
    16    7   11 1
    17    7   35 1
    18    8   12 1
    19    8   13 1
    20    8   36 1
    21    9   14 1
    22    9   15 1
    23    9   37 1
    24   10   16 ar
    25   10   17 ar
    26   11   18 ar
    27   11   19 ar
    28   12   38 1
    29   12   39 1
    30   12   40 1
    31   13   41 1
    32   13   42 1
    33   13   43 1
    34   14   44 1
    35   14   45 1
    36   14   46 1
    37   15   47 1
    38   15   48 1
    39   15   49 1
    40   16   21 ar
    41   17   20 ar
    42   17   50 1
    43   18   23 ar
    44   18   51 1
    45   19   24 ar
    46   19   52 1
    47   20   22 ar
    48   20   25 1
    49   21   22 ar
    50   21   53 1
    51   22   54 1
    52   23   26 ar
    53   23   55 1
    54   24   26 ar
    55   24   56 1
    56   25   57 1
    57   25   58 1
    58   26   59 1
    59   27   28 1
    60   28   29 1
    61   28   30 1
    62   28   60 1
    63   29   61 1
    64   29   62 1
    65   29   63 1
    66   30   64 1
    67   30   65 1
    68   30   66 1
