@<TRIPOS>MOLECULE
DB06152
   47    48     0     0     0
SMALL
USER_CHARGES

@<TRIPOS>ATOM
      1 O1         -2.0848   -1.0348   -1.9663 O.3       1 <0>        -0.3856
      2 O2         -7.8075   -0.1427    0.2665 O.3       1 <0>        -0.5068
      3 N1         -0.0116    0.0717   -0.3585 N.3       1 <0>        -0.3083
      4 C1          0.8176    1.2081    0.0434 C.3       1 <0>         0.0054
      5 C2         -1.4117    0.3242   -0.0566 C.3       1 <0>         0.0351
      6 C3          2.3061    0.9281   -0.2357 C.3       1 <0>        -0.0338
      7 C4         -2.2722   -0.8568   -0.5596 C.3       1 <0>         0.0952
      8 C5          2.8930   -0.2727    0.5215 C.3       1 <0>        -0.0263
      9 C6          0.3618    2.4630   -0.7018 C.3       1 <0>        -0.0497
     10 C7         -1.5373    0.5418    1.4525 C.3       1 <0>        -0.0470
     11 C8         -3.7573   -0.6650   -0.3375 C.ar      1 <0>        -0.0175
     12 C9          4.3667   -0.4848    0.2816 C.ar      1 <0>        -0.0473
     13 C10        -4.4591   -1.6114    0.3880 C.ar      1 <0>        -0.0526
     14 C11        -4.3796    0.4523   -0.8660 C.ar      1 <0>        -0.0526
     15 C12         4.7764   -1.2974   -0.7647 C.ar      1 <0>        -0.0586
     16 C13         5.2879    0.1362    1.1115 C.ar      1 <0>        -0.0586
     17 C14        -5.8276   -1.4348    0.5915 C.ar      1 <0>        -0.0198
     18 C15        -5.7482    0.6287   -0.6623 C.ar      1 <0>        -0.0198
     19 C16        -6.4723   -0.3147    0.0664 C.ar      1 <0>         0.1169
     20 C17         6.1395   -1.4938   -0.9864 C.ar      1 <0>        -0.0615
     21 C18         6.6510   -0.0600    0.8897 C.ar      1 <0>        -0.0615
     22 C19         7.0768   -0.8751   -0.1592 C.ar      1 <0>        -0.0617
     23 H1          0.7693    1.3958    1.1209 H         1 <0>         0.0458
     24 H2         -1.7621    1.2125   -0.5883 H         1 <0>         0.0486
     25 H3          2.4540    0.7787   -1.3144 H         1 <0>         0.0283
     26 H4          2.8884    1.8226    0.0244 H         1 <0>         0.0283
     27 H5          0.2941   -0.7731    0.1217 H         1 <0>         0.1225
     28 H6         -1.9413   -1.7854   -0.0760 H         1 <0>         0.0659
     29 H7          2.3655   -1.1943    0.2466 H         1 <0>         0.0314
     30 H8          2.7175   -0.1472    1.5982 H         1 <0>         0.0314
     31 H9          0.2366    2.2776   -1.7750 H         1 <0>         0.0245
     32 H10        -0.5686    2.8795   -0.3035 H         1 <0>         0.0245
     33 H11         1.1102    3.2580   -0.6008 H         1 <0>         0.0245
     34 H12        -1.0235   -0.2394    2.0252 H         1 <0>         0.0246
     35 H13        -1.1647    1.5189    1.7750 H         1 <0>         0.0246
     36 H14        -2.5860    0.5232    1.7679 H         1 <0>         0.0246
     37 H15        -1.1298   -1.1355   -2.1204 H         1 <0>         0.2103
     38 H16        -3.9683   -2.4871    0.8021 H         1 <0>         0.0622
     39 H17        -3.8374    1.1903   -1.4488 H         1 <0>         0.0622
     40 H18         4.0543   -1.7816   -1.4158 H         1 <0>         0.0620
     41 H19         4.9662    0.7744    1.9296 H         1 <0>         0.0620
     42 H20        -6.3803   -2.1770    1.1614 H         1 <0>         0.0654
     43 H21        -6.2454    1.5017   -1.0764 H         1 <0>         0.0654
     44 H22         6.4710   -2.1278   -1.8035 H         1 <0>         0.0618
     45 H23         7.3810    0.4221    1.5334 H         1 <0>         0.0618
     46 H24         8.1381   -1.0277   -0.3320 H         1 <0>         0.0618
     47 H25        -8.1463   -0.8890    0.7904 H         1 <0>         0.2921
@<TRIPOS>BOND
     1    1    7 1
     2    1   37 1
     3    2   19 1
     4    2   47 1
     5    3    4 1
     6    3    5 1
     7    3   27 1
     8    4    6 1
     9    4    9 1
    10    4   23 1
    11    5    7 1
    12    5   10 1
    13    5   24 1
    14    6    8 1
    15    6   25 1
    16    6   26 1
    17    7   11 1
    18    7   28 1
    19    8   12 1
    20    8   29 1
    21    8   30 1
    22    9   31 1
    23    9   32 1
    24    9   33 1
    25   10   34 1
    26   10   35 1
    27   10   36 1
    28   11   13 ar
    29   11   14 ar
    30   12   15 ar
    31   12   16 ar
    32   13   17 ar
    33   13   38 1
    34   14   18 ar
    35   14   39 1
    36   15   20 ar
    37   15   40 1
    38   16   21 ar
    39   16   41 1
    40   17   19 ar
    41   17   42 1
    42   18   19 ar
    43   18   43 1
    44   20   22 ar
    45   20   44 1
    46   21   22 ar
    47   21   45 1
    48   22   46 1
