@<TRIPOS>MOLECULE
DB06335
   48    52     0     0     0
SMALL
USER_CHARGES

@<TRIPOS>ATOM
      1 O1         -1.8131   -3.0046    0.1902 O.3       1 <0>        -0.3885
      2 O2          1.0774    1.1553   -1.9623 O.2       1 <0>        -0.2738
      3 N1          2.5632    0.4105   -0.3537 N.am      1 <0>        -0.2810
      4 N2          0.2268    2.8394    0.1966 N.3       1 <0>        -0.3195
      5 N3          2.8603   -2.2702   -2.4937 N.1       1 <0>        -0.1946
      6 C1         -0.9049    0.6681    0.1695 C.3       1 <0>        -0.0025
      7 C2         -2.0262   -1.6021    0.1165 C.3       1 <0>         0.0672
      8 C3         -3.2244    0.3579    1.1471 C.3       1 <0>        -0.0376
      9 C4         -2.8916    0.2519   -1.3510 C.3       1 <0>        -0.0376
     10 C5         -0.6870   -0.8592    0.2632 C.3       1 <0>        -0.0164
     11 C6         -1.8820    1.0971    1.2902 C.3       1 <0>        -0.0425
     12 C7         -1.5504    0.9915   -1.1994 C.3       1 <0>        -0.0425
     13 C8         -2.9790   -1.1561    1.2386 C.3       1 <0>        -0.0211
     14 C9         -2.6478   -1.2616   -1.2488 C.3       1 <0>        -0.0211
     15 C10        -3.8411    0.6892   -0.2224 C.3       1 <0>        -0.0471
     16 C11         0.4286    1.4056    0.3155 C.3       1 <0>         0.0883
     17 C12         2.9774    0.2236    1.0131 C.3       1 <0>         0.0306
     18 C13         4.4007   -0.2556    1.0266 C.3       1 <0>        -0.0180
     19 C14         3.3079   -1.1346    1.5689 C.3       1 <0>        -0.0294
     20 C15         4.8666   -0.3070   -0.4029 C.3       1 <0>        -0.0164
     21 C16         1.3753    0.9828   -0.7794 C.2       1 <0>         0.2342
     22 C17         3.6148   -0.0611   -1.2775 C.3       1 <0>         0.1135
     23 C18         3.1928   -1.2964   -1.9576 C.1       1 <0>         0.0851
     24 H1         -3.9060    0.6710    1.9457 H         1 <0>         0.0302
     25 H2         -3.3399    0.4893   -2.3225 H         1 <0>         0.0302
     26 H3          0.0016   -1.2214   -0.5108 H         1 <0>         0.0299
     27 H4         -0.2175   -1.1267    1.2196 H         1 <0>         0.0299
     28 H5         -1.4486    0.8810    2.2754 H         1 <0>         0.0274
     29 H6         -2.0727    2.1771    1.2600 H         1 <0>         0.0274
     30 H7         -1.7386    2.0635   -1.3255 H         1 <0>         0.0274
     31 H8         -0.9627    0.6553   -2.0533 H         1 <0>         0.0274
     32 H9         -2.5582   -1.4195    2.2177 H         1 <0>         0.0296
     33 H10        -3.9291   -1.7013    1.1684 H         1 <0>         0.0296
     34 H11        -3.5901   -1.8087   -1.3834 H         1 <0>         0.0296
     35 H12        -1.9903   -1.6019   -2.0594 H         1 <0>         0.0296
     36 H13        -4.8079    0.1821   -0.3296 H         1 <0>         0.0271
     37 H14        -4.0369    1.7662   -0.2943 H         1 <0>         0.0271
     38 H15         2.7944    1.0545    1.6839 H         1 <0>         0.0504
     39 H16         0.8053    1.2089    1.3186 H         1 <0>         0.0560
     40 H17         5.1081    0.1834    1.7145 H         1 <0>         0.0320
     41 H18         3.0198   -2.0130    1.0052 H         1 <0>         0.0286
     42 H19         3.2499   -1.2618    2.6434 H         1 <0>         0.0286
     43 H20         5.3788   -1.2493   -0.6254 H         1 <0>         0.0296
     44 H21         5.5832    0.5077   -0.5639 H         1 <0>         0.0296
     45 H22         3.8039    0.7193   -2.0234 H         1 <0>         0.0659
     46 H23        -2.6759   -3.4448    0.1043 H         1 <0>         0.2102
     47 H24        -0.0125    3.0988   -0.7589 H         1 <0>         0.1189
     48 H25         1.0979    3.3261    0.4060 H         1 <0>         0.1189
@<TRIPOS>BOND
     1    1    7 1
     2    1   46 1
     3    2   21 2
     4    3   17 1
     5    3   21 am
     6    3   22 1
     7    4   16 1
     8    4   47 1
     9    4   48 1
    10    5   23 3
    11    6   10 1
    12    6   11 1
    13    6   12 1
    14    6   16 1
    15    7   10 1
    16    7   13 1
    17    7   14 1
    18    8   11 1
    19    8   13 1
    20    8   15 1
    21    8   24 1
    22    9   12 1
    23    9   14 1
    24    9   15 1
    25    9   25 1
    26   10   26 1
    27   10   27 1
    28   11   28 1
    29   11   29 1
    30   12   30 1
    31   12   31 1
    32   13   32 1
    33   13   33 1
    34   14   34 1
    35   14   35 1
    36   15   36 1
    37   15   37 1
    38   16   21 1
    39   16   39 1
    40   17   18 1
    41   17   19 1
    42   17   38 1
    43   18   19 1
    44   18   20 1
    45   18   40 1
    46   19   41 1
    47   19   42 1
    48   20   22 1
    49   20   43 1
    50   20   44 1
    51   22   23 1
    52   22   45 1
