@<TRIPOS>MOLECULE
DB06718
   56    60     0     0     0
SMALL
USER_CHARGES

@<TRIPOS>ATOM
      1 O1          5.0278   -1.1191   -0.5137 O.3       1 <0>        -0.3883
      2 N1         -6.0040   -0.0554    0.4399 N.pl3     1 <0>        -0.2813
      3 N2         -6.3904   -1.3353    0.6041 N.2       1 <0>        -0.1818
      4 C1          1.9470    0.7083    0.2869 C.3       1 <0>        -0.0298
      5 C2          0.4986    0.8985   -0.1861 C.3       1 <0>        -0.0343
      6 C3          2.6223   -0.5443   -0.3125 C.3       1 <0>        -0.0004
      7 C4         -0.3330   -0.3598    0.2162 C.3       1 <0>        -0.0319
      8 C5         -1.8462   -0.2318   -0.1976 C.3       1 <0>        -0.0217
      9 C6          4.0701   -0.3865    0.2473 C.3       1 <0>         0.0689
     10 C7          1.8254   -1.7742    0.1532 C.3       1 <0>        -0.0445
     11 C8          0.3410   -1.6793   -0.2451 C.3       1 <0>        -0.0488
     12 C9         -2.4089    1.1096    0.4279 C.3       1 <0>        -0.0297
     13 C10         2.9535    1.8213    0.0131 C.3       1 <0>        -0.0468
     14 C11        -0.1152    2.1747    0.4065 C.3       1 <0>        -0.0494
     15 C12         4.3292    1.1400    0.1337 C.3       1 <0>        -0.0235
     16 C13        -1.5838    2.3392    0.0309 C.3       1 <0>        -0.0491
     17 C14        -2.6588   -1.4493    0.3828 C.3       1 <0>        -0.0186
     18 C15         2.6571   -0.5370   -1.8693 C.3       1 <0>        -0.0567
     19 C16        -2.0047   -0.2365   -1.7410 C.3       1 <0>        -0.0587
     20 C17        -3.9134    1.3540    0.1339 C.3       1 <0>        -0.0073
     21 C18         4.2647   -0.8522    1.6958 C.3       1 <0>        -0.0356
     22 C19        -4.1186   -1.1719    0.4364 C.2       1 <0>        -0.0065
     23 C20        -4.6550    0.0894    0.3393 C.2       1 <0>         0.0395
     24 C21        -5.2354   -2.0113    0.6013 C.2       1 <0>         0.0526
     25 H1          1.8987    0.5978    1.3809 H         1 <0>         0.0310
     26 H2          0.4918    1.0130   -1.2748 H         1 <0>         0.0306
     27 H3         -0.3184   -0.3965    1.3174 H         1 <0>         0.0309
     28 H4          1.8659   -1.8721    1.2445 H         1 <0>         0.0272
     29 H5          2.2597   -2.6930   -0.2585 H         1 <0>         0.0272
     30 H6          0.2517   -1.8016   -1.3281 H         1 <0>         0.0268
     31 H7         -0.1771   -2.5360    0.2009 H         1 <0>         0.0268
     32 H8         -2.3187    1.0059    1.5213 H         1 <0>         0.0310
     33 H9          2.8565    2.6442    0.7289 H         1 <0>         0.0269
     34 H10         2.8242    2.2414   -0.9907 H         1 <0>         0.0269
     35 H11         0.4366    3.0555    0.0579 H         1 <0>         0.0268
     36 H12        -0.0240    2.1589    1.5002 H         1 <0>         0.0268
     37 H13         4.9441    1.3778   -0.7423 H         1 <0>         0.0293
     38 H14         4.8684    1.5246    1.0071 H         1 <0>         0.0293
     39 H15        -1.9794    3.2282    0.5374 H         1 <0>         0.0268
     40 H16        -1.6712    2.5321   -1.0446 H         1 <0>         0.0268
     41 H17        -2.3225   -1.6623    1.4058 H         1 <0>         0.0320
     42 H18        -2.4787   -2.3529   -0.2116 H         1 <0>         0.0320
     43 H19         1.6668   -0.4578   -2.3237 H         1 <0>         0.0236
     44 H20         3.2533    0.2900   -2.2679 H         1 <0>         0.0236
     45 H21         3.1036   -1.4647   -2.2463 H         1 <0>         0.0236
     46 H22        -3.0481   -0.1170   -2.0486 H         1 <0>         0.0235
     47 H23        -1.4388    0.5651   -2.2223 H         1 <0>         0.0235
     48 H24        -1.6660   -1.1823   -2.1753 H         1 <0>         0.0235
     49 H25        -4.0556    1.7015   -0.8960 H         1 <0>         0.0331
     50 H26        -4.2981    2.1358    0.7992 H         1 <0>         0.0331
     51 H27         5.2952   -0.6630    2.0207 H         1 <0>         0.0257
     52 H28         3.5964   -0.3497    2.4002 H         1 <0>         0.0257
     53 H29         4.1199   -1.9344    1.7873 H         1 <0>         0.0257
     54 H30         4.7726   -2.0572   -0.4884 H         1 <0>         0.2102
     55 H31        -5.2604   -3.0850    0.7210 H         1 <0>         0.0850
     56 H32        -6.7174    0.6625    0.4042 H         1 <0>         0.1885
@<TRIPOS>BOND
     1    1    9 1
     2    1   54 1
     3    2    3 1
     4    2   23 2
     5    2   56 1
     6    3   24 1
     7    4    5 1
     8    4    6 1
     9    4   13 1
    10    4   25 1
    11    5    7 1
    12    5   14 1
    13    5   26 1
    14    6    9 1
    15    6   10 1
    16    6   18 1
    17    7    8 1
    18    7   11 1
    19    7   27 1
    20    8   12 1
    21    8   17 1
    22    8   19 1
    23    9   15 1
    24    9   21 1
    25   10   11 1
    26   10   28 1
    27   10   29 1
    28   11   30 1
    29   11   31 1
    30   12   16 1
    31   12   20 1
    32   12   32 1
    33   13   15 1
    34   13   33 1
    35   13   34 1
    36   14   16 1
    37   14   35 1
    38   14   36 1
    39   15   37 1
    40   15   38 1
    41   16   39 1
    42   16   40 1
    43   17   22 1
    44   17   41 1
    45   17   42 1
    46   18   43 1
    47   18   44 1
    48   18   45 1
    49   19   46 1
    50   19   47 1
    51   19   48 1
    52   20   23 1
    53   20   49 1
    54   20   50 1
    55   21   51 1
    56   21   52 1
    57   21   53 1
    58   22   23 1
    59   22   24 2
    60   24   55 1
