@<TRIPOS>MOLECULE
DB06137
   61    64     0     0     0
SMALL
USER_CHARGES

@<TRIPOS>ATOM
      1 O1         -9.5525   -2.4750   -0.1871 O.3       1 <0>        -0.3772
      2 O2         -4.7378    1.6620    0.6180 O.3       1 <0>        -0.4907
      3 O3          5.0084    0.1929   -1.3581 O.2       1 <0>        -0.2754
      4 N1         -7.3838   -0.6552   -0.4812 N.3       1 <0>        -0.2948
      5 N2          7.0644    1.0515   -0.7060 N.am      1 <0>        -0.3109
      6 N3          2.8712    2.6699   -0.5387 N.ar      1 <0>        -0.2588
      7 C1         -7.6084   -1.3870    0.7731 C.3       1 <0>         0.0225
      8 C2         -8.6604   -0.4484   -1.1791 C.3       1 <0>         0.0225
      9 C3         -6.7194    0.6210   -0.2255 C.3       1 <0>         0.0333
     10 C4         -8.3128   -2.7091    0.4820 C.3       1 <0>         0.0604
     11 C5         -9.3409   -1.7922   -1.4235 C.3       1 <0>         0.0604
     12 C6         -5.3530    0.3986    0.4031 C.3       1 <0>         0.1022
     13 C7         -3.3682    1.6964    0.5820 C.ar      1 <0>         0.1206
     14 C8         -0.5899    1.7662    0.5091 C.ar      1 <0>        -0.0162
     15 C9         -2.7200    2.8520    0.1611 C.ar      1 <0>        -0.0194
     16 C10        -2.6416    0.5755    0.9666 C.ar      1 <0>        -0.0194
     17 C11         0.8556    1.8025    0.4713 C.ar      1 <0>         0.0002
     18 C12        -1.3261    2.8869    0.1246 C.ar      1 <0>        -0.0505
     19 C13        -1.2477    0.6105    0.9301 C.ar      1 <0>        -0.0505
     20 C14         3.5761    1.9219    0.3396 C.ar      1 <0>         0.0500
     21 C15         5.0634    2.0058    0.2463 C.3       1 <0>         0.0662
     22 C16         1.6128    1.0473    1.3581 C.ar      1 <0>        -0.0509
     23 C17         1.5246    2.5904   -0.4497 C.ar      1 <0>         0.0356
     24 C18         3.0008    1.1026    1.2976 C.ar      1 <0>        -0.0393
     25 C19         7.8816    0.1801   -1.5175 C.3       1 <0>         0.0368
     26 C20         5.6785    0.9816   -0.6963 C.2       1 <0>         0.2191
     27 C21         8.2533   -1.0797   -0.7903 C.ar      1 <0>        -0.0303
     28 C22         9.4182   -1.1181   -0.0329 C.ar      1 <0>        -0.0571
     29 C23         7.4286   -2.1950   -0.8812 C.ar      1 <0>        -0.0571
     30 C24         9.7635   -2.2885    0.6430 C.ar      1 <0>        -0.0615
     31 C25         7.7740   -3.3652   -0.2051 C.ar      1 <0>        -0.0615
     32 C26         8.9415   -3.4119    0.5570 C.ar      1 <0>        -0.0617
     33 H1         -6.6735   -1.6491    1.2749 H         1 <0>         0.0449
     34 H2         -8.2184   -0.7896    1.4630 H         1 <0>         0.0449
     35 H3         -9.3216    0.1915   -0.5803 H         1 <0>         0.0449
     36 H4         -8.4919    0.0447   -2.1432 H         1 <0>         0.0449
     37 H5         -7.3237    1.2749    0.4175 H         1 <0>         0.0460
     38 H6         -6.5796    1.1688   -1.1666 H         1 <0>         0.0460
     39 H7         -7.6889   -3.3758   -0.1261 H         1 <0>         0.0572
     40 H8         -8.5351   -3.2282    1.4199 H         1 <0>         0.0572
     41 H9        -10.3195   -1.6353   -1.8884 H         1 <0>         0.0572
     42 H10        -8.7521   -2.4275   -2.0965 H         1 <0>         0.0572
     43 H11        -5.4236   -0.0791    1.3840 H         1 <0>         0.0709
     44 H12        -4.7624   -0.2312   -0.2757 H         1 <0>         0.0709
     45 H13        -3.2903    3.7284   -0.1335 H         1 <0>         0.0654
     46 H14        -3.1131   -0.3355    1.3220 H         1 <0>         0.0654
     47 H15        -0.8555    3.8165   -0.1840 H         1 <0>         0.0625
     48 H16        -0.7152   -0.2920    1.2175 H         1 <0>         0.0625
     49 H17         5.3477    3.0038   -0.1113 H         1 <0>         0.0422
     50 H18         5.5141    1.8888    1.2398 H         1 <0>         0.0422
     51 H19         1.1653    0.4250    2.1278 H         1 <0>         0.0625
     52 H20         1.0143    3.1897   -1.1971 H         1 <0>         0.0836
     53 H21         3.6025    0.5204    1.9875 H         1 <0>         0.0636
     54 H22         8.7799    0.7410   -1.7999 H         1 <0>         0.0512
     55 H23         7.3520   -0.0573   -2.4480 H         1 <0>         0.0512
     56 H24         7.5336    1.7273   -0.1097 H         1 <0>         0.1490
     57 H25        10.0650   -0.2483    0.0428 H         1 <0>         0.0621
     58 H26         6.5188   -2.1737   -1.4740 H         1 <0>         0.0621
     59 H27        10.6722   -2.3247    1.2367 H         1 <0>         0.0618
     60 H28         7.1345   -4.2405   -0.2726 H         1 <0>         0.0618
     61 H29         9.2104   -4.3231    1.0831 H         1 <0>         0.0618
@<TRIPOS>BOND
     1    1   10 1
     2    1   11 1
     3    2   12 1
     4    2   13 1
     5    3   26 2
     6    4    7 1
     7    4    8 1
     8    4    9 1
     9    5   25 1
    10    5   26 am
    11    5   56 1
    12    6   20 ar
    13    6   23 ar
    14    7   10 1
    15    7   33 1
    16    7   34 1
    17    8   11 1
    18    8   35 1
    19    8   36 1
    20    9   12 1
    21    9   37 1
    22    9   38 1
    23   10   39 1
    24   10   40 1
    25   11   41 1
    26   11   42 1
    27   12   43 1
    28   12   44 1
    29   13   15 ar
    30   13   16 ar
    31   14   17 1
    32   14   18 ar
    33   14   19 ar
    34   15   18 ar
    35   15   45 1
    36   16   19 ar
    37   16   46 1
    38   17   22 ar
    39   17   23 ar
    40   18   47 1
    41   19   48 1
    42   20   21 1
    43   20   24 ar
    44   21   26 1
    45   21   49 1
    46   21   50 1
    47   22   24 ar
    48   22   51 1
    49   23   52 1
    50   24   53 1
    51   25   27 1
    52   25   54 1
    53   25   55 1
    54   27   28 ar
    55   27   29 ar
    56   28   30 ar
    57   28   57 1
    58   29   31 ar
    59   29   58 1
    60   30   32 ar
    61   30   59 1
    62   31   32 ar
    63   31   60 1
    64   32   61 1
