@<TRIPOS>MOLECULE
DB06237
   60    63     0     0     0
SMALL
USER_CHARGES

@<TRIPOS>ATOM
      1 Cl1        -5.2067   -1.4706   -2.8594 Cl        1 <0>        -0.0797
      2 O1          6.1725    1.9921   -0.3772 O.3       1 <0>        -0.3932
      3 O2          0.0111    3.8879   -0.3177 O.2       1 <0>        -0.2700
      4 O3         -5.8857   -2.6110   -0.1616 O.3       1 <0>        -0.4937
      5 N1          4.4043   -0.5188    0.0820 N.pl3     1 <0>        -0.2944
      6 N2          2.1158   -0.2185   -0.1604 N.ar      1 <0>        -0.1988
      7 N3          3.5485    1.5896    0.5369 N.ar      1 <0>        -0.2219
      8 N4         -0.2171    0.1275   -0.3977 N.pl3     1 <0>        -0.3242
      9 N5         -0.9703    2.5262    1.2821 N.am      1 <0>        -0.3041
     10 N6         -4.0743    1.8945    1.0151 N.ar      1 <0>        -0.2387
     11 N7         -3.3085    3.4404   -0.6674 N.ar      1 <0>        -0.2387
     12 C1          5.7600   -0.1807    0.5343 C.3       1 <0>         0.0493
     13 C2          6.4057   -1.5564    0.7554 C.3       1 <0>        -0.0307
     14 C3          5.7432   -2.4336   -0.2938 C.3       1 <0>        -0.0354
     15 C4          4.3044   -1.9251   -0.3163 C.3       1 <0>         0.0153
     16 C5          6.5028    0.6235   -0.5316 C.3       1 <0>         0.0628
     17 C6          3.3088    0.3202    0.1562 C.ar      1 <0>         0.2198
     18 C7          1.0689    0.6288   -0.0777 C.ar      1 <0>         0.1363
     19 C8          1.1806    1.9514    0.2994 C.ar      1 <0>         0.0945
     20 C9          2.4575    2.3811    0.5981 C.ar      1 <0>         0.0466
     21 C10        -0.4393   -1.2237   -0.7984 C.3       1 <0>         0.0357
     22 C11         0.0535    2.8658    0.3900 C.2       1 <0>         0.2492
     23 C12        -1.8888   -1.5898   -0.6370 C.ar      1 <0>        -0.0288
     24 C13        -2.7808   -1.3891   -1.6904 C.ar      1 <0>        -0.0352
     25 C14        -2.3411   -2.1302    0.5668 C.ar      1 <0>        -0.0535
     26 C15        -2.1642    3.3192    1.4677 C.3       1 <0>         0.0718
     27 C16        -4.1253   -1.7291   -1.5402 C.ar      1 <0>         0.0828
     28 C17        -3.6857   -2.4699    0.7170 C.ar      1 <0>        -0.0182
     29 C18        -4.5778   -2.2695   -0.3365 C.ar      1 <0>         0.1383
     30 C19        -3.2552    2.8538    0.5436 C.ar      1 <0>         0.1459
     31 C20        -6.2485   -3.1557    1.1053 C.3       1 <0>         0.0789
     32 C21        -5.0409    1.5007    0.1602 C.ar      1 <0>         0.0311
     33 C22        -4.2988    2.9991   -1.4706 C.ar      1 <0>         0.0311
     34 C23        -5.2031    2.0223   -1.1070 C.ar      1 <0>        -0.0254
     35 H1          5.7356    0.3646    1.4861 H         1 <0>         0.0523
     36 H2          7.4965   -1.5494    0.6746 H         1 <0>         0.0284
     37 H3          6.1452   -1.9280    1.7545 H         1 <0>         0.0284
     38 H4          5.8051   -3.4996   -0.0580 H         1 <0>         0.0281
     39 H5          6.2145   -2.2737   -1.2709 H         1 <0>         0.0281
     40 H6          3.8644   -2.0410   -1.3125 H         1 <0>         0.0465
     41 H7          3.6970   -2.4774    0.4104 H         1 <0>         0.0465
     42 H8          7.5861    0.5351   -0.4012 H         1 <0>         0.0576
     43 H9          6.2419    0.3098   -1.5479 H         1 <0>         0.0576
     44 H10         6.6596    2.4840   -1.0600 H         1 <0>         0.2095
     45 H11         2.6559    3.4028    0.9069 H         1 <0>         0.0839
     46 H12        -0.9090    0.8175   -0.6728 H         1 <0>         0.1478
     47 H13         0.1602   -1.9230   -0.2007 H         1 <0>         0.0511
     48 H14        -0.1277   -1.3682   -1.8403 H         1 <0>         0.0511
     49 H15        -0.8861    1.6683    1.8203 H         1 <0>         0.1495
     50 H16        -2.4252   -0.9648   -2.6266 H         1 <0>         0.0636
     51 H17        -1.6557   -2.2884    1.3952 H         1 <0>         0.0622
     52 H18        -2.4770    3.2099    2.5112 H         1 <0>         0.0543
     53 H19        -1.9392    4.3757    1.2869 H         1 <0>         0.0543
     54 H20        -3.9606   -2.8828    1.6812 H         1 <0>         0.0655
     55 H21        -6.0996   -2.4324    1.9144 H         1 <0>         0.0660
     56 H22        -7.3220   -3.3691    1.0671 H         1 <0>         0.0660
     57 H23        -5.7441   -4.1091    1.2961 H         1 <0>         0.0660
     58 H24        -5.7055    0.7299    0.5355 H         1 <0>         0.0830
     59 H25        -4.3469    3.4679   -2.4476 H         1 <0>         0.0830
     60 H26        -5.9888    1.6887   -1.7712 H         1 <0>         0.0648
@<TRIPOS>BOND
     1    1   27 1
     2    2   16 1
     3    2   44 1
     4    3   22 2
     5    4   29 1
     6    4   31 1
     7    5   12 1
     8    5   15 1
     9    5   17 1
    10    6   17 ar
    11    6   18 ar
    12    7   17 ar
    13    7   20 ar
    14    8   18 1
    15    8   21 1
    16    8   46 1
    17    9   22 am
    18    9   26 1
    19    9   49 1
    20   10   30 ar
    21   10   32 ar
    22   11   30 ar
    23   11   33 ar
    24   12   13 1
    25   12   16 1
    26   12   35 1
    27   13   14 1
    28   13   36 1
    29   13   37 1
    30   14   15 1
    31   14   38 1
    32   14   39 1
    33   15   40 1
    34   15   41 1
    35   16   42 1
    36   16   43 1
    37   18   19 ar
    38   19   20 ar
    39   19   22 1
    40   20   45 1
    41   21   23 1
    42   21   47 1
    43   21   48 1
    44   23   24 ar
    45   23   25 ar
    46   24   27 ar
    47   24   50 1
    48   25   28 ar
    49   25   51 1
    50   26   30 1
    51   26   52 1
    52   26   53 1
    53   27   29 ar
    54   28   29 ar
    55   28   54 1
    56   31   55 1
    57   31   56 1
    58   31   57 1
    59   32   34 ar
    60   32   58 1
    61   33   34 ar
    62   33   59 1
    63   34   60 1
