@<TRIPOS>MOLECULE
DB06755
   96    97     0     0     0
SMALL
USER_CHARGES

@<TRIPOS>ATOM
      1 C1        -12.9037   -0.7215   -0.4818 C.3       1 <0>        -0.0099
      2 C2         12.8957    0.3747    0.6132 C.3       1 <0>        -0.0099
      3 C3        -14.2656    0.0159   -0.3635 C.3       1 <0>        -0.0436
      4 C4         13.9616   -0.6624    1.0623 C.3       1 <0>        -0.0436
      5 C5        -14.1362    1.5068   -0.6189 C.3       1 <0>        -0.0486
      6 C6         14.2425   -1.6990   -0.0107 C.3       1 <0>        -0.0486
      7 C7        -11.7729    0.0531    0.2353 C.2       1 <0>        -0.0427
      8 C8         11.6954   -0.3082   -0.0837 C.2       1 <0>        -0.0427
      9 C9        -13.1907    2.1295    0.3972 C.3       1 <0>        -0.0314
     10 C10        12.9707   -2.4657   -0.3405 C.3       1 <0>        -0.0314
     11 C11       -11.9252    1.3355    0.6515 C.2       1 <0>        -0.0689
     12 C12        11.7334   -1.6032   -0.4869 C.2       1 <0>        -0.0689
     13 C13       -12.5492   -0.8860   -1.9777 C.3       1 <0>        -0.0558
     14 C14       -13.1253   -2.1270    0.1288 C.3       1 <0>        -0.0558
     15 C15        13.5528    1.3821   -0.3585 C.3       1 <0>        -0.0558
     16 C16        12.4716    1.1326    1.8950 C.3       1 <0>        -0.0558
     17 C17       -10.5262   -0.6739    0.4110 C.2       1 <0>        -0.0579
     18 C18        10.5320    0.5360   -0.3024 C.2       1 <0>        -0.0579
     19 C19       -10.8965    2.1473    1.4044 C.3       1 <0>        -0.0432
     20 C20        10.5930   -2.3630   -1.1245 C.3       1 <0>        -0.0432
     21 C21        -9.3181   -0.1151    0.2338 C.2       1 <0>        -0.0586
     22 C22         9.2712    0.0977   -0.1581 C.2       1 <0>        -0.0586
     23 C23        -8.0248   -0.7799    0.3954 C.2       1 <0>        -0.0504
     24 C24         8.0523    0.8800   -0.3648 C.2       1 <0>        -0.0504
     25 C25        -8.0372   -2.2338    0.8088 C.3       1 <0>        -0.0397
     26 C26         8.2064    2.3127   -0.8159 C.3       1 <0>        -0.0397
     27 C27        -6.8322   -0.1749    0.2056 C.2       1 <0>        -0.0588
     28 C28         6.8082    0.3803   -0.2032 C.2       1 <0>        -0.0588
     29 C29        -5.5011   -0.7394    0.3385 C.2       1 <0>        -0.0613
     30 C30         5.5332    1.0478   -0.3760 C.2       1 <0>        -0.0613
     31 C31        -4.3868   -0.0202    0.1184 C.2       1 <0>        -0.0588
     32 C32         4.3409    0.4575   -0.1891 C.2       1 <0>        -0.0588
     33 C33        -3.0086   -0.4999    0.2236 C.2       1 <0>        -0.0504
     34 C34         3.0201    1.0788   -0.3297 C.2       1 <0>        -0.0504
     35 C35        -2.7921   -1.9318    0.6491 C.3       1 <0>        -0.0397
     36 C36         2.9792    2.5272   -0.7469 C.3       1 <0>        -0.0397
     37 C37        -1.9314    0.2794   -0.0122 C.2       1 <0>        -0.0588
     38 C38         1.9309    0.3148   -0.0976 C.2       1 <0>        -0.0588
     39 C39        -0.5283   -0.0751    0.0581 C.2       1 <0>        -0.0615
     40 C40         0.5372    0.7089   -0.1790 C.2       1 <0>        -0.0615
     41 H1        -14.9952   -0.4111   -1.0633 H         1 <0>         0.0274
     42 H2        -14.6847   -0.1298    0.6420 H         1 <0>         0.0274
     43 H3         14.8969   -0.1581    1.3358 H         1 <0>         0.0274
     44 H4         13.6199   -1.1837    1.9675 H         1 <0>         0.0274
     45 H5        -15.1192    1.9865   -0.5470 H         1 <0>         0.0269
     46 H6        -13.7723    1.6930   -1.6358 H         1 <0>         0.0269
     47 H7         15.0130   -2.3977    0.3352 H         1 <0>         0.0269
     48 H8         14.6385   -1.2194   -0.9133 H         1 <0>         0.0269
     49 H9        -12.9313    3.1366    0.0475 H         1 <0>         0.0310
     50 H10       -13.7175    2.2498    1.3528 H         1 <0>         0.0310
     51 H11        13.1532   -3.0253   -1.2661 H         1 <0>         0.0310
     52 H12        12.7786   -3.2063    0.4466 H         1 <0>         0.0310
     53 H13       -13.3659   -1.3686   -2.5268 H         1 <0>         0.0238
     54 H14       -11.6572   -1.5089   -2.1121 H         1 <0>         0.0238
     55 H15       -12.3472    0.0778   -2.4576 H         1 <0>         0.0238
     56 H16       -12.3003   -2.8123   -0.0935 H         1 <0>         0.0238
     57 H17       -14.0309   -2.5917   -0.2798 H         1 <0>         0.0238
     58 H18       -13.2425   -2.0749    1.2175 H         1 <0>         0.0238
     59 H19        12.8977    2.2342   -0.5702 H         1 <0>         0.0238
     60 H20        13.8047    0.9170   -1.3180 H         1 <0>         0.0238
     61 H21        14.4773    1.7917    0.0649 H         1 <0>         0.0238
     62 H22        13.3448    1.5395    2.4184 H         1 <0>         0.0238
     63 H23        11.9432    0.4701    2.5907 H         1 <0>         0.0238
     64 H24        11.8097    1.9768    1.6723 H         1 <0>         0.0238
     65 H25       -10.6076   -1.7029    0.7403 H         1 <0>         0.0621
     66 H26        10.7319    1.5526   -0.6234 H         1 <0>         0.0621
     67 H27       -11.3960    2.7976    2.1331 H         1 <0>         0.0275
     68 H28       -10.3357    2.7914    0.7199 H         1 <0>         0.0275
     69 H29       -10.2069    1.5404    1.9962 H         1 <0>         0.0275
     70 H30         9.9944   -2.8735   -0.3639 H         1 <0>         0.0275
     71 H31        10.9790   -3.1375   -1.7984 H         1 <0>         0.0275
     72 H32         9.9582   -1.7432   -1.7624 H         1 <0>         0.0275
     73 H33        -9.2384    0.9072   -0.1293 H         1 <0>         0.0620
     74 H34         9.0775   -0.9007    0.2243 H         1 <0>         0.0620
     75 H35        -7.0699   -2.7218    0.9172 H         1 <0>         0.0278
     76 H36        -8.5886   -2.8275    0.0697 H         1 <0>         0.0278
     77 H37        -8.5378   -2.3422    1.7785 H         1 <0>         0.0278
     78 H38         8.7461    2.8875   -0.0538 H         1 <0>         0.0278
     79 H39         7.2891    2.8634   -1.0189 H         1 <0>         0.0278
     80 H40         8.7842    2.3520   -1.7472 H         1 <0>         0.0278
     81 H41        -6.8486    0.8755   -0.0879 H         1 <0>         0.0620
     82 H42         6.7254   -0.6625    0.1063 H         1 <0>         0.0620
     83 H43        -5.4010   -1.7776    0.6209 H         1 <0>         0.0618
     84 H44         5.5429    2.0914   -0.6596 H         1 <0>         0.0618
     85 H45        -4.4873    1.0258   -0.1703 H         1 <0>         0.0620
     86 H46         4.3366   -0.5928    0.1033 H         1 <0>         0.0620
     87 H47        -3.2872   -2.1157    1.6105 H         1 <0>         0.0278
     88 H48        -3.2256   -2.6113   -0.0944 H         1 <0>         0.0278
     89 H49        -1.7615   -2.2533    0.7904 H         1 <0>         0.0278
     90 H50         3.4897    3.1538   -0.0067 H         1 <0>         0.0278
     91 H51         1.9701    2.9303   -0.8506 H         1 <0>         0.0278
     92 H52         3.4676    2.6611   -1.7189 H         1 <0>         0.0278
     93 H53        -2.1093    1.3150   -0.3035 H         1 <0>         0.0620
     94 H54         2.0751   -0.7270    0.1909 H         1 <0>         0.0620
     95 H55        -0.2885   -1.0985    0.3261 H         1 <0>         0.0618
     96 H56         0.3324    1.7392   -0.4545 H         1 <0>         0.0618
@<TRIPOS>BOND
     1    1    3 1
     2    1    7 1
     3    1   13 1
     4    1   14 1
     5    2    4 1
     6    2    8 1
     7    2   15 1
     8    2   16 1
     9    3    5 1
    10    3   41 1
    11    3   42 1
    12    4    6 1
    13    4   43 1
    14    4   44 1
    15    5    9 1
    16    5   45 1
    17    5   46 1
    18    6   10 1
    19    6   47 1
    20    6   48 1
    21    7   11 2
    22    7   17 1
    23    8   12 2
    24    8   18 1
    25    9   11 1
    26    9   49 1
    27    9   50 1
    28   10   12 1
    29   10   51 1
    30   10   52 1
    31   11   19 1
    32   12   20 1
    33   13   53 1
    34   13   54 1
    35   13   55 1
    36   14   56 1
    37   14   57 1
    38   14   58 1
    39   15   59 1
    40   15   60 1
    41   15   61 1
    42   16   62 1
    43   16   63 1
    44   16   64 1
    45   17   21 2
    46   17   65 1
    47   18   22 2
    48   18   66 1
    49   19   67 1
    50   19   68 1
    51   19   69 1
    52   20   70 1
    53   20   71 1
    54   20   72 1
    55   21   23 1
    56   21   73 1
    57   22   24 1
    58   22   74 1
    59   23   25 1
    60   23   27 2
    61   24   26 1
    62   24   28 2
    63   25   75 1
    64   25   76 1
    65   25   77 1
    66   26   78 1
    67   26   79 1
    68   26   80 1
    69   27   29 1
    70   27   81 1
    71   28   30 1
    72   28   82 1
    73   29   31 2
    74   29   83 1
    75   30   32 2
    76   30   84 1
    77   31   33 1
    78   31   85 1
    79   32   34 1
    80   32   86 1
    81   33   35 1
    82   33   37 2
    83   34   36 1
    84   34   38 2
    85   35   87 1
    86   35   88 1
    87   35   89 1
    88   36   90 1
    89   36   91 1
    90   36   92 1
    91   37   39 1
    92   37   93 1
    93   38   40 1
    94   38   94 1
    95   39   40 2
    96   39   95 1
    97   40   96 1
