@<TRIPOS>MOLECULE
DB06700
   44    45     0     0     0
SMALL
USER_CHARGES

@<TRIPOS>ATOM
      1 O1         -1.1759    0.4867   -1.5850 O.3       1 <0>        -0.3879
      2 O2          3.9016    3.7951   -0.5656 O.3       1 <0>        -0.5068
      3 N1          1.9161   -2.0727    0.0247 N.3       1 <0>        -0.3077
      4 C1         -1.2545    0.1073   -0.2077 C.3       1 <0>         0.0740
      5 C2          0.1416   -0.3346    0.2349 C.3       1 <0>         0.0257
      6 C3         -1.7084    1.3353    0.5967 C.3       1 <0>        -0.0234
      7 C4         -2.2614   -1.0452   -0.0622 C.3       1 <0>        -0.0234
      8 C5         -3.1380    1.7582    0.2533 C.3       1 <0>        -0.0504
      9 C6         -3.6882   -0.6147   -0.4059 C.3       1 <0>        -0.0504
     10 C7         -4.1193    0.6009    0.4081 C.3       1 <0>        -0.0529
     11 C8          0.6110   -1.6313   -0.4587 C.3       1 <0>         0.0078
     12 C9          1.1570    0.7801    0.0186 C.ar      1 <0>        -0.0401
     13 C10         1.7982    1.3180    1.1147 C.ar      1 <0>        -0.0547
     14 C11         1.4023    1.2164   -1.2664 C.ar      1 <0>        -0.0547
     15 C12         2.3590   -3.2612   -0.7050 C.3       1 <0>        -0.0130
     16 C13         1.8659   -2.3465    1.4614 C.3       1 <0>        -0.0130
     17 C14         2.7274    2.3394    0.9165 C.ar      1 <0>        -0.0199
     18 C15         2.3315    2.2377   -1.4646 C.ar      1 <0>        -0.0199
     19 C16         2.9940    2.7992   -0.3731 C.ar      1 <0>         0.1169
     20 H1          0.0543   -0.5305    1.3115 H         1 <0>         0.0389
     21 H2         -1.0672    2.2019    0.3978 H         1 <0>         0.0293
     22 H3         -1.6519    1.1242    1.6721 H         1 <0>         0.0293
     23 H4         -2.2416   -1.4398    0.9612 H         1 <0>         0.0293
     24 H5         -2.0304   -1.8699   -0.7448 H         1 <0>         0.0293
     25 H6         -3.1757    2.1350   -0.7761 H         1 <0>         0.0266
     26 H7         -3.4413    2.5862    0.9044 H         1 <0>         0.0266
     27 H8         -4.3775   -1.4456   -0.2173 H         1 <0>         0.0266
     28 H9         -3.7583   -0.3820   -1.4756 H         1 <0>         0.0266
     29 H10        -4.1917    0.3236    1.4669 H         1 <0>         0.0265
     30 H11        -5.1189    0.9203    0.0929 H         1 <0>         0.0265
     31 H12        -0.1063   -2.4415   -0.2881 H         1 <0>         0.0433
     32 H13         0.6616   -1.4845   -1.5445 H         1 <0>         0.0433
     33 H14        -1.1353   -0.3195   -2.1264 H         1 <0>         0.2102
     34 H15         1.5939    0.9760    2.1244 H         1 <0>         0.0622
     35 H16         0.9719    0.7672   -2.1528 H         1 <0>         0.0622
     36 H17         2.4292   -3.0510   -1.7781 H         1 <0>         0.0391
     37 H18         1.6821   -4.1115   -0.5628 H         1 <0>         0.0391
     38 H19         3.3619   -3.5606   -0.3809 H         1 <0>         0.0391
     39 H20         2.8061   -2.8065    1.7901 H         1 <0>         0.0391
     40 H21         1.0541   -3.0336    1.7274 H         1 <0>         0.0391
     41 H22         1.7763   -1.4405    2.0643 H         1 <0>         0.0391
     42 H23         3.2354    2.7697    1.7754 H         1 <0>         0.0654
     43 H24         2.5473    2.5811   -2.4728 H         1 <0>         0.0654
     44 H25         4.2622    4.0639    0.2968 H         1 <0>         0.2921
@<TRIPOS>BOND
     1    1    4 1
     2    1   33 1
     3    2   19 1
     4    2   44 1
     5    3   11 1
     6    3   15 1
     7    3   16 1
     8    4    5 1
     9    4    6 1
    10    4    7 1
    11    5   11 1
    12    5   12 1
    13    5   20 1
    14    6    8 1
    15    6   21 1
    16    6   22 1
    17    7    9 1
    18    7   23 1
    19    7   24 1
    20    8   10 1
    21    8   25 1
    22    8   26 1
    23    9   10 1
    24    9   27 1
    25    9   28 1
    26   10   29 1
    27   10   30 1
    28   11   31 1
    29   11   32 1
    30   12   13 ar
    31   12   14 ar
    32   13   17 ar
    33   13   34 1
    34   14   18 ar
    35   14   35 1
    36   15   36 1
    37   15   37 1
    38   15   38 1
    39   16   39 1
    40   16   40 1
    41   16   41 1
    42   17   19 ar
    43   17   42 1
    44   18   19 ar
    45   18   43 1
