@<TRIPOS>MOLECULE
DB06234
   43    45     0     0     0
SMALL
USER_CHARGES

@<TRIPOS>ATOM
      1 Cl1        -6.1411   -1.2957   -0.2242 Cl        1 <0>        -0.0820
      2 Cl2        -6.5471    1.8281    0.4581 Cl        1 <0>        -0.0820
      3 O1          0.9698   -1.0409   -1.0071 O.3       1 <0>        -0.3457
      4 O2         -0.8329   -3.6061   -0.3436 O.3       1 <0>        -0.3847
      5 O3          1.0847   -3.5459    1.5753 O.3       1 <0>        -0.3864
      6 O4          3.7978   -1.0729   -0.8908 O.3       1 <0>        -0.3924
      7 N1         -1.1056   -0.0124   -0.4868 N.pl3     1 <0>        -0.2828
      8 N2          0.8368    1.3121   -0.4180 N.pl3     1 <0>        -0.3124
      9 N3         -1.3809    2.1470   -0.0157 N.2       1 <0>        -0.2143
     10 C1         -0.4411   -1.2755   -0.8127 C.3       1 <0>         0.1670
     11 C2         -0.5867   -2.3431    0.2726 C.3       1 <0>         0.1286
     12 C3          0.7677   -2.3178    0.9556 C.3       1 <0>         0.1135
     13 C4          1.7015   -1.9722   -0.1928 C.3       1 <0>         0.1126
     14 C5          3.0079   -1.3405    0.2545 C.3       1 <0>         0.0730
     15 C6         -2.4574    0.1601   -0.3098 C.2       1 <0>         0.0740
     16 C7         -0.5082    1.2063   -0.2997 C.cat     1 <0>         0.1989
     17 C8         -2.6023    1.5134   -0.0175 C.2       1 <0>         0.0925
     18 C9         -3.5310   -0.7283   -0.3793 C.2       1 <0>        -0.0162
     19 C10         1.5814    2.5445   -0.2437 C.3       1 <0>         0.0176
     20 C11        -3.8873    2.0283    0.2224 C.2       1 <0>        -0.0144
     21 C12        -4.8029   -0.1987   -0.1376 C.2       1 <0>         0.0613
     22 C13        -4.9801    1.1548    0.1579 C.2       1 <0>         0.0614
     23 C14         2.9297    2.4191   -0.9404 C.3       1 <0>        -0.0469
     24 C15         1.7494    2.8312    1.2429 C.3       1 <0>        -0.0469
     25 H1         -0.8562   -1.5941   -1.7762 H         1 <0>         0.0866
     26 H2         -1.3955   -2.1750    0.9896 H         1 <0>         0.0665
     27 H3          0.7749   -1.5208    1.7098 H         1 <0>         0.0647
     28 H4          1.9123   -2.8542   -0.8111 H         1 <0>         0.0647
     29 H5          3.5701   -2.0071    0.9156 H         1 <0>         0.0584
     30 H6          2.8450   -0.3954    0.7789 H         1 <0>         0.0584
     31 H7         -1.6925   -3.5474   -0.7943 H         1 <0>         0.2101
     32 H8          1.9843   -3.4703    1.9359 H         1 <0>         0.2100
     33 H9          1.4045    0.5194   -0.6828 H         1 <0>         0.1491
     34 H10        -3.3845   -1.7763   -0.6169 H         1 <0>         0.0654
     35 H11         1.0364    3.3742   -0.7111 H         1 <0>         0.0493
     36 H12        -4.0163    3.0821    0.4513 H         1 <0>         0.0654
     37 H13         3.9820   -1.9215   -1.3284 H         1 <0>         0.2095
     38 H14         3.4797    3.3648   -0.8893 H         1 <0>         0.0247
     39 H15         3.5531    1.6471   -0.4788 H         1 <0>         0.0247
     40 H16         2.8032    2.1588   -1.9970 H         1 <0>         0.0247
     41 H17         0.7801    2.9631    1.7353 H         1 <0>         0.0247
     42 H18         2.3294    3.7469    1.3985 H         1 <0>         0.0247
     43 H19         2.2678    2.0108    1.7518 H         1 <0>         0.0247
@<TRIPOS>BOND
     1    1   21 1
     2    2   22 1
     3    3   10 1
     4    3   13 1
     5    4   11 1
     6    4   31 1
     7    5   12 1
     8    5   32 1
     9    6   14 1
    10    6   37 1
    11    7   10 1
    12    7   15 1
    13    7   16 2
    14    8   16 1
    15    8   19 1
    16    8   33 1
    17    9   16 1
    18    9   17 2
    19   10   11 1
    20   10   25 1
    21   11   12 1
    22   11   26 1
    23   12   13 1
    24   12   27 1
    25   13   14 1
    26   13   28 1
    27   14   29 1
    28   14   30 1
    29   15   17 1
    30   15   18 2
    31   17   20 2
    32   18   21 1
    33   18   34 1
    34   19   23 1
    35   19   24 1
    36   19   35 1
    37   20   22 1
    38   20   36 1
    39   21   22 2
    40   23   38 1
    41   23   39 1
    42   23   40 1
    43   24   41 1
    44   24   42 1
    45   24   43 1
