@<TRIPOS>MOLECULE
DB06268
   44    47     0     0     0
SMALL
USER_CHARGES

@<TRIPOS>ATOM
      1 Cl1         2.2631    3.0117   -0.5114 Cl        1 <0>        -0.0762
      2 S1          1.9529   -1.4307   -2.0271 S.o2      1 <0>         0.0758
      3 S2          1.5344   -1.8098    2.1744 S.3       1 <0>        -0.0918
      4 O1         -4.6818    2.7301    0.3760 O.3       1 <0>        -0.4526
      5 O2         -6.0569    1.1022   -0.7495 O.3       1 <0>        -0.4526
      6 O3         -0.0292    0.4188   -0.4851 O.2       1 <0>        -0.2911
      7 O4          0.5476   -1.6373   -2.3515 O.2       1 <0>        -0.1499
      8 O5          2.9908   -2.2621   -2.6259 O.2       1 <0>        -0.1499
      9 O6          4.6471    0.0490   -1.3082 O.3       1 <0>        -0.3364
     10 N1          2.3709    0.2317   -2.2861 N.pl3     1 <0>        -0.1821
     11 N2          5.4632    0.7676   -0.4428 N.2       1 <0>        -0.0798
     12 C1         -2.4738   -0.1698    0.7976 C.ar      1 <0>        -0.0333
     13 C2         -1.1567   -0.5618    1.3852 C.3       1 <0>         0.0366
     14 C3         -3.2760   -1.1196    0.1411 C.ar      1 <0>        -0.0432
     15 C4          2.0341   -1.7638   -0.3452 C.2       1 <0>         0.1261
     16 C5          1.1882   -1.3021    0.5990 C.2       1 <0>         0.0814
     17 C6         -2.8930    1.1580    0.9122 C.ar      1 <0>        -0.0123
     18 C7          0.0214   -0.4204    0.4164 C.2       1 <0>         0.1759
     19 C8         -4.1125    1.4941    0.3611 C.ar      1 <0>         0.1665
     20 C9         -4.8977    0.5644   -0.2815 C.ar      1 <0>         0.1665
     21 C10        -4.5068   -0.7528   -0.4084 C.ar      1 <0>        -0.0130
     22 C11        -2.8264   -2.5394    0.0158 C.3       1 <0>        -0.0393
     23 C12         3.0367   -2.5887    0.2415 C.2       1 <0>        -0.0273
     24 C13        -5.9130    2.4746   -0.3303 C.3       1 <0>         0.2332
     25 C14         2.8830   -2.6987    1.6060 C.2       1 <0>        -0.0217
     26 C15         3.4868    0.7088   -1.4340 C.2       1 <0>         0.2554
     27 C16         3.4714    1.8422   -0.6970 C.2       1 <0>         0.1262
     28 C17         4.7395    1.8341   -0.0910 C.2       1 <0>         0.1009
     29 C18         5.3159    2.8240    0.8357 C.3       1 <0>        -0.0176
     30 H1         -1.2204   -1.5827    1.7740 H         1 <0>         0.0394
     31 H2         -0.9405    0.0736    2.2547 H         1 <0>         0.0394
     32 H3         -2.2864    1.9047    1.4132 H         1 <0>         0.0658
     33 H4         -5.1410   -1.4702   -0.9183 H         1 <0>         0.0658
     34 H5         -3.4933   -3.1148   -0.6361 H         1 <0>         0.0278
     35 H6         -1.8278   -2.5996   -0.4282 H         1 <0>         0.0278
     36 H7         -2.8263   -3.0311    0.9938 H         1 <0>         0.0278
     37 H8          3.8386   -3.0821   -0.2927 H         1 <0>         0.0643
     38 H9          1.5778    0.8873   -2.2992 H         1 <0>         0.1768
     39 H10        -5.9488    3.1179   -1.2170 H         1 <0>         0.1166
     40 H11        -6.7533    2.7313    0.3250 H         1 <0>         0.1166
     41 H12         3.4989   -3.2576    2.2964 H         1 <0>         0.0694
     42 H13         6.3307    2.5519    1.1451 H         1 <0>         0.0294
     43 H14         5.3653    3.8104    0.3630 H         1 <0>         0.0294
     44 H15         4.7034    2.9067    1.7394 H         1 <0>         0.0294
@<TRIPOS>BOND
     1    1   27 1
     2    2    7 2
     3    2    8 2
     4    2   10 1
     5    2   15 1
     6    3   16 1
     7    3   25 1
     8    4   19 1
     9    4   24 1
    10    5   20 1
    11    5   24 1
    12    6   18 2
    13    9   11 1
    14    9   26 1
    15   10   26 1
    16   10   38 1
    17   11   28 2
    18   12   13 1
    19   12   14 ar
    20   12   17 ar
    21   13   18 1
    22   13   30 1
    23   13   31 1
    24   14   21 ar
    25   14   22 1
    26   15   16 2
    27   15   23 1
    28   16   18 1
    29   17   19 ar
    30   17   32 1
    31   19   20 ar
    32   20   21 ar
    33   21   33 1
    34   22   34 1
    35   22   35 1
    36   22   36 1
    37   23   25 2
    38   23   37 1
    39   24   39 1
    40   24   40 1
    41   25   41 1
    42   26   27 2
    43   27   28 1
    44   28   29 1
    45   29   42 1
    46   29   43 1
    47   29   44 1
