@<TRIPOS>MOLECULE
DB06823
   19    18     0     0     0
SMALL
USER_CHARGES

@<TRIPOS>ATOM
      1 S1         -1.6207   -2.0370   -0.0648 S.3       1 <0>        -0.1658
      2 O1         -0.3900    0.8608   -1.4143 O.2       1 <0>        -0.2746
      3 O2          2.3208   -1.2545   -0.4446 O.3       1 <0>        -0.4795
      4 O3          4.0000    0.2622   -0.6089 O.2       1 <0>        -0.2492
      5 N1          0.6083    0.3998    0.6293 N.am      1 <0>        -0.3040
      6 C1         -1.6981   -0.2504    0.2895 C.3       1 <0>         0.0756
      7 C2         -0.4411    0.3922   -0.2788 C.2       1 <0>         0.2259
      8 C3         -2.9603    0.3403   -0.3247 C.3       1 <0>        -0.0451
      9 C4          1.8983    0.9732    0.3248 C.3       1 <0>         0.1089
     10 C5          2.8528   -0.0205   -0.2859 C.2       1 <0>         0.3221
     11 H1         -1.7300   -0.1120    1.3756 H         1 <0>         0.0502
     12 H2          0.4857   -0.0352    1.5391 H         1 <0>         0.1493
     13 H3          2.3232    1.3317    1.2664 H         1 <0>         0.0577
     14 H4          1.7687    1.8061   -0.3726 H         1 <0>         0.0577
     15 H5         -3.0031    1.4194   -0.1380 H         1 <0>         0.0245
     16 H6         -2.9970    0.2012   -1.4115 H         1 <0>         0.0245
     17 H7         -3.8615   -0.1060    0.1099 H         1 <0>         0.0245
     18 H8         -0.5165   -2.2895    0.6535 H         1 <0>         0.1024
     19 H9          2.9605   -1.8818   -0.8441 H         1 <0>         0.2951
@<TRIPOS>BOND
     1    1    6 1
     2    1   18 1
     3    2    7 2
     4    3   10 1
     5    3   19 1
     6    4   10 2
     7    5    7 am
     8    5    9 1
     9    5   12 1
    10    6    7 1
    11    6    8 1
    12    6   11 1
    13    8   15 1
    14    8   16 1
    15    8   17 1
    16    9   10 1
    17    9   13 1
    18    9   14 1
