@<TRIPOS>MOLECULE
DB06817
   53    55     0     0     0
SMALL
USER_CHARGES

@<TRIPOS>ATOM
      1 F1         -5.3899   -4.8299   -1.0497 F         1 <0>        -0.2055
      2 O1         -1.8676    3.7571   -2.1533 O.3       1 <0>        -0.5006
      3 O2          0.8024    4.3337   -1.8256 O.2       1 <0>        -0.2636
      4 O3          3.4403   -1.1952    1.9429 O.2       1 <0>        -0.2649
      5 O4          5.2794   -2.1151    0.0892 O.3       1 <0>        -0.4172
      6 O5         -3.5526    1.7848   -1.7749 O.2       1 <0>        -0.2684
      7 N1          2.3451    0.0997    0.3608 N.am      1 <0>        -0.2955
      8 N2          1.1034    2.5548   -0.3339 N.am      1 <0>        -0.2951
      9 N3         -0.7552    1.1772    0.2145 N.2       1 <0>        -0.2230
     10 N4         -3.4259    0.9910    0.4139 N.am      1 <0>        -0.3059
     11 N5          4.3053   -0.8848   -1.5052 N.2       1 <0>        -0.1024
     12 N6          5.3733   -1.5531   -2.0742 N.2       1 <0>        -0.1122
     13 C1          1.3514    0.6479    1.2480 C.3       1 <0>         0.0873
     14 C2          0.4979    1.4920    0.3313 C.2       1 <0>         0.1362
     15 C3          1.9914    1.5290    2.3118 C.3       1 <0>        -0.0369
     16 C4          0.5046   -0.4530    1.8716 C.3       1 <0>        -0.0369
     17 C5          0.3661    3.3728   -1.1951 C.2       1 <0>         0.2964
     18 C6         -1.5140    1.9508   -0.6199 C.2       1 <0>         0.1740
     19 C7          2.5266    2.8183   -0.1293 C.3       1 <0>         0.0165
     20 C8         -1.0701    3.0026   -1.3224 C.2       1 <0>         0.2130
     21 C9          3.3211   -0.7897    0.7898 C.2       1 <0>         0.3015
     22 C10        -2.9303    1.5747   -0.7368 C.2       1 <0>         0.2665
     23 C11         4.2885   -1.2428   -0.2426 C.2       1 <0>         0.3038
     24 C12        -4.7918    0.5364    0.5457 C.3       1 <0>         0.0372
     25 C13        -4.9514   -0.8944    0.1204 C.ar      1 <0>        -0.0301
     26 C14        -5.2546   -1.1977   -1.2069 C.ar      1 <0>        -0.0544
     27 C15        -4.7964   -1.9208    1.0524 C.ar      1 <0>        -0.0544
     28 C16         5.9123   -2.2584   -1.1072 C.2       1 <0>         0.2148
     29 C17        -5.4030   -2.5269   -1.6024 C.ar      1 <0>        -0.0261
     30 C18        -4.9450   -3.2502    0.6570 C.ar      1 <0>        -0.0261
     31 C19        -5.2482   -3.5532   -0.6704 C.ar      1 <0>         0.1234
     32 C20         7.0730   -3.1570   -1.1383 C.3       1 <0>         0.0138
     33 H1          1.0770   -1.0802    2.5629 H         1 <0>         0.0254
     34 H2         -0.3301   -0.0400    2.4516 H         1 <0>         0.0254
     35 H3          0.0849   -1.1267    1.1139 H         1 <0>         0.0254
     36 H4          2.0333    0.9946    3.2704 H         1 <0>         0.0254
     37 H5          3.0344    1.7962    2.1158 H         1 <0>         0.0254
     38 H6          1.4139    2.4395    2.5099 H         1 <0>         0.0254
     39 H7          2.2744    0.2717   -0.6400 H         1 <0>         0.1501
     40 H8          3.2249    1.9919   -0.1283 H         1 <0>         0.0457
     41 H9          2.8752    3.4564   -0.9514 H         1 <0>         0.0457
     42 H10         2.6410    3.4391    0.7642 H         1 <0>         0.0457
     43 H11        -2.8082    0.8559    1.2096 H         1 <0>         0.1494
     44 H12        -5.4493    1.1854   -0.0450 H         1 <0>         0.0512
     45 H13        -5.0809    0.6609    1.5954 H         1 <0>         0.0512
     46 H14        -1.3093    4.4530   -2.5410 H         1 <0>         0.2924
     47 H15        -5.3807   -0.4086   -1.9432 H         1 <0>         0.0622
     48 H16        -4.5580   -1.6975    2.0889 H         1 <0>         0.0622
     49 H17        -5.6394   -2.7634   -2.6356 H         1 <0>         0.0646
     50 H18        -4.8238   -4.0495    1.3820 H         1 <0>         0.0646
     51 H19         7.8477   -2.8092   -0.4486 H         1 <0>         0.0324
     52 H20         6.7822   -4.1715   -0.8501 H         1 <0>         0.0324
     53 H21         7.5046   -3.1986   -2.1429 H         1 <0>         0.0324
@<TRIPOS>BOND
     1    1   31 1
     2    2   20 1
     3    2   46 1
     4    3   17 2
     5    4   21 2
     6    5   23 1
     7    5   28 1
     8    6   22 2
     9    7   13 1
    10    7   21 am
    11    7   39 1
    12    8   14 1
    13    8   17 am
    14    8   19 1
    15    9   14 2
    16    9   18 1
    17   10   22 am
    18   10   24 1
    19   10   43 1
    20   11   12 1
    21   11   23 2
    22   12   28 2
    23   13   14 1
    24   13   15 1
    25   13   16 1
    26   15   36 1
    27   15   37 1
    28   15   38 1
    29   16   33 1
    30   16   34 1
    31   16   35 1
    32   17   20 1
    33   18   20 2
    34   18   22 1
    35   19   40 1
    36   19   41 1
    37   19   42 1
    38   21   23 1
    39   24   25 1
    40   24   44 1
    41   24   45 1
    42   25   26 ar
    43   25   27 ar
    44   26   29 ar
    45   26   47 1
    46   27   30 ar
    47   27   48 1
    48   28   32 1
    49   29   31 ar
    50   29   49 1
    51   30   31 ar
    52   30   50 1
    53   32   51 1
    54   32   52 1
    55   32   53 1
