@<TRIPOS>MOLECULE
DB06786
   63    67     0     0     0
SMALL
USER_CHARGES

@<TRIPOS>ATOM
      1 Cl1        -5.2411   -3.3141   -0.9610 Cl        1 <0>        -0.1173
      2 F1          1.3218    0.5990   -1.3092 F         1 <0>        -0.2380
      3 O1         -3.0242    0.2543   -0.9991 O.3       1 <0>        -0.3321
      4 O2         -3.7192    1.8124    0.6180 O.3       1 <0>        -0.3426
      5 O3          1.2089   -2.6758    0.1986 O.3       1 <0>        -0.3886
      6 O4         -4.7092   -1.3997    1.2386 O.2       1 <0>        -0.2930
      7 O5          6.4051    1.5518   -1.9317 O.2       1 <0>        -0.2927
      8 C1         -1.3432   -0.8142    0.4798 C.3       1 <0>         0.0122
      9 C2         -0.6623    0.5576    0.6823 C.3       1 <0>        -0.0241
     10 C3          0.8424    0.4622    0.9790 C.3       1 <0>         0.0001
     11 C4         -2.8092   -0.3470    0.2755 C.3       1 <0>         0.1628
     12 C5          1.5504   -0.2386   -0.2243 C.3       1 <0>         0.1492
     13 C6         -1.5812    1.2703    1.6772 C.3       1 <0>        -0.0195
     14 C7         -2.9958    0.7853    1.2898 C.3       1 <0>         0.0986
     15 C8         -0.6774   -1.4845   -0.7370 C.3       1 <0>        -0.0150
     16 C9          0.8621   -1.5777   -0.6305 C.3       1 <0>         0.0907
     17 C10         3.1247   -0.2934   -0.0664 C.3       1 <0>         0.0263
     18 C11         1.4275    1.8674    1.1984 C.3       1 <0>        -0.0432
     19 C12        -1.2723   -1.7281    1.7331 C.3       1 <0>        -0.0561
     20 C13         3.6404    1.1132    0.2709 C.2       1 <0>        -0.0572
     21 C14         2.9357    1.8316    1.3966 C.3       1 <0>        -0.0304
     22 C15        -3.8232   -1.4477    0.3865 C.2       1 <0>         0.1825
     23 C16        -3.7419    1.4707   -0.7692 C.3       1 <0>         0.1663
     24 C17         3.7382   -0.7782   -1.4133 C.3       1 <0>        -0.0339
     25 C18         3.6090   -1.2284    1.0654 C.3       1 <0>        -0.0528
     26 C19         5.2269   -0.4963   -1.5401 C.3       1 <0>         0.0107
     27 C20         4.6820    1.7007   -0.3412 C.2       1 <0>        -0.0194
     28 C21        -3.6703   -2.5831   -0.5993 C.3       1 <0>         0.0839
     29 C22        -5.1939    1.2881   -1.2023 C.3       1 <0>        -0.0108
     30 C23        -3.0875    2.5905   -1.5694 C.3       1 <0>        -0.0108
     31 C24         5.4943    0.9728   -1.3433 C.2       1 <0>         0.1561
     32 H1         -0.7439    1.1244   -0.2573 H         1 <0>         0.0312
     33 H2          1.0030   -0.1171    1.8939 H         1 <0>         0.0335
     34 H3         -1.3414    0.9636    2.7013 H         1 <0>         0.0294
     35 H4         -1.4847    2.3589    1.6137 H         1 <0>         0.0294
     36 H5         -3.5425    0.5143    2.1982 H         1 <0>         0.0631
     37 H6         -0.9097   -0.9134   -1.6446 H         1 <0>         0.0297
     38 H7         -1.0720   -2.4932   -0.8873 H         1 <0>         0.0297
     39 H8          1.2158   -1.8388   -1.6355 H         1 <0>         0.0625
     40 H9          0.9701    2.3300    2.0810 H         1 <0>         0.0272
     41 H10         1.1878    2.5145    0.3445 H         1 <0>         0.0272
     42 H11        -0.2485   -1.8644    2.0900 H         1 <0>         0.0236
     43 H12        -1.8466   -1.3344    2.5778 H         1 <0>         0.0236
     44 H13        -1.6598   -2.7291    1.5197 H         1 <0>         0.0236
     45 H14         3.1685    1.3273    2.3425 H         1 <0>         0.0310
     46 H15         3.3004    2.8608    1.5019 H         1 <0>         0.0310
     47 H16         3.2333   -0.2816   -2.2530 H         1 <0>         0.0279
     48 H17         3.5706   -1.8538   -1.5472 H         1 <0>         0.0279
     49 H18         4.6634   -1.0532    1.3120 H         1 <0>         0.0239
     50 H19         3.0393   -1.0899    1.9894 H         1 <0>         0.0239
     51 H20         3.5313   -2.2830    0.7847 H         1 <0>         0.0239
     52 H21         0.8047   -3.4757   -0.1779 H         1 <0>         0.2099
     53 H22         5.5624   -0.7800   -2.5438 H         1 <0>         0.0345
     54 H23         5.8142   -1.0635   -0.8113 H         1 <0>         0.0345
     55 H24         5.0104    2.7015   -0.0815 H         1 <0>         0.0652
     56 H25        -3.0286   -3.3611   -0.1838 H         1 <0>         0.0509
     57 H26        -3.2749   -2.2268   -1.5518 H         1 <0>         0.0509
     58 H27        -5.7693    2.2088   -1.0588 H         1 <0>         0.0281
     59 H28        -5.2594    0.9820   -2.2516 H         1 <0>         0.0281
     60 H29        -5.6862    0.5114   -0.6076 H         1 <0>         0.0281
     61 H30        -3.6141    3.5403   -1.4279 H         1 <0>         0.0281
     62 H31        -2.0540    2.7493   -1.2443 H         1 <0>         0.0281
     63 H32        -3.0569    2.3510   -2.6375 H         1 <0>         0.0281
@<TRIPOS>BOND
     1    1   28 1
     2    2   12 1
     3    3   11 1
     4    3   23 1
     5    4   14 1
     6    4   23 1
     7    5   16 1
     8    5   52 1
     9    6   22 2
    10    7   31 2
    11    8    9 1
    12    8   11 1
    13    8   15 1
    14    8   19 1
    15    9   10 1
    16    9   13 1
    17    9   32 1
    18   10   12 1
    19   10   18 1
    20   10   33 1
    21   11   14 1
    22   11   22 1
    23   12   16 1
    24   12   17 1
    25   13   14 1
    26   13   34 1
    27   13   35 1
    28   14   36 1
    29   15   16 1
    30   15   37 1
    31   15   38 1
    32   16   39 1
    33   17   20 1
    34   17   24 1
    35   17   25 1
    36   18   21 1
    37   18   40 1
    38   18   41 1
    39   19   42 1
    40   19   43 1
    41   19   44 1
    42   20   21 1
    43   20   27 2
    44   21   45 1
    45   21   46 1
    46   22   28 1
    47   23   29 1
    48   23   30 1
    49   24   26 1
    50   24   47 1
    51   24   48 1
    52   25   49 1
    53   25   50 1
    54   25   51 1
    55   26   31 1
    56   26   53 1
    57   26   54 1
    58   27   31 1
    59   27   55 1
    60   28   56 1
    61   28   57 1
    62   29   58 1
    63   29   59 1
    64   29   60 1
    65   30   61 1
    66   30   62 1
    67   30   63 1
