@<TRIPOS>MOLECULE
DB06684
   60    64     0     0     0
SMALL
USER_CHARGES

@<TRIPOS>ATOM
      1 O1         -6.9375    0.5429   -0.2510 O.3       1 <0>        -0.4502
      2 O2         -7.6455    3.9926    0.2916 O.2       1 <0>        -0.2671
      3 N1          0.8442   -2.5407   -0.1201 N.3       1 <0>        -0.2994
      4 N2         -1.8702   -1.6533   -0.0575 N.pl3     1 <0>        -0.3274
      5 N3          6.3544    1.6810   -1.3616 N.pl3     1 <0>        -0.3604
      6 N4         -9.0435    2.2707   -0.1890 N.am      1 <0>        -0.3228
      7 N5          1.3905    4.9154    1.7869 N.1       1 <0>        -0.1909
      8 C1         -0.1869   -3.2517   -0.8861 C.3       1 <0>         0.0147
      9 C2          0.2659   -2.0048    1.1180 C.3       1 <0>         0.0147
     10 C3         -1.3394   -2.3152   -1.2560 C.3       1 <0>         0.0250
     11 C4         -0.8726   -1.0273    0.8156 C.3       1 <0>         0.0250
     12 C5          1.9650   -3.4310    0.1803 C.3       1 <0>        -0.0010
     13 C6          3.0663   -2.6680    0.9145 C.3       1 <0>        -0.0399
     14 C7          3.5868   -1.5014    0.0721 C.3       1 <0>        -0.0478
     15 C8         -3.1676   -1.1321   -0.1142 C.ar      1 <0>         0.0305
     16 C9          4.6666   -0.7125    0.8191 C.3       1 <0>        -0.0257
     17 C10         5.1666    0.4581    0.0262 C.2       1 <0>        -0.0223
     18 C11        -3.3976    0.2495    0.1010 C.ar      1 <0>        -0.0299
     19 C12        -4.2700   -1.9727   -0.3865 C.ar      1 <0>        -0.0372
     20 C13         4.6353    1.7634    0.0580 C.ar      1 <0>         0.0040
     21 C14        -4.7074    0.7568    0.0406 C.ar      1 <0>         0.0227
     22 C15         6.2152    0.4214   -0.8436 C.cat     1 <0>         0.0059
     23 C16        -5.7491   -0.1240   -0.2321 C.ar      1 <0>         0.1360
     24 C17        -5.5804   -1.4900   -0.4515 C.ar      1 <0>        -0.0170
     25 C18         5.4031    2.5215   -0.8287 C.ar      1 <0>         0.0468
     26 C19        -5.3111    2.0325    0.1946 C.2       1 <0>        -0.0034
     27 C20         3.5785    2.3905    0.7473 C.ar      1 <0>        -0.0349
     28 C21         5.1658    3.8809   -1.0613 C.ar      1 <0>        -0.0366
     29 C22        -6.6616    1.8477    0.0084 C.2       1 <0>         0.1903
     30 C23         3.3295    3.7498    0.5245 C.ar      1 <0>         0.0525
     31 C24         4.1123    4.4815   -0.3664 C.ar      1 <0>        -0.0424
     32 C25        -7.7500    2.7638    0.0446 C.2       1 <0>         0.2769
     33 C26         2.2594    4.3931    1.2212 C.1       1 <0>         0.0992
     34 H1         -0.5764   -4.1049   -0.3142 H         1 <0>         0.0442
     35 H2          0.2419   -3.6489   -1.8142 H         1 <0>         0.0442
     36 H3         -0.1057   -2.8165    1.7580 H         1 <0>         0.0442
     37 H4          0.9892   -1.4290    1.7016 H         1 <0>         0.0442
     38 H5         -2.1081   -2.9060   -1.7673 H         1 <0>         0.0476
     39 H6         -0.9932   -1.5522   -1.9652 H         1 <0>         0.0476
     40 H7         -0.4679   -0.1276    0.3342 H         1 <0>         0.0476
     41 H8         -1.3265   -0.7275    1.7686 H         1 <0>         0.0476
     42 H9          1.6461   -4.2866    0.7895 H         1 <0>         0.0427
     43 H10         2.3795   -3.8349   -0.7520 H         1 <0>         0.0427
     44 H11         3.8974   -3.3660    1.0830 H         1 <0>         0.0278
     45 H12         2.7676   -2.3412    1.9151 H         1 <0>         0.0278
     46 H13         2.7717   -0.8151   -0.1870 H         1 <0>         0.0269
     47 H14         3.9917   -1.8803   -0.8751 H         1 <0>         0.0269
     48 H15         4.2729   -0.3621    1.7813 H         1 <0>         0.0314
     49 H16         5.5082   -1.3764    1.0555 H         1 <0>         0.0314
     50 H17        -2.5787    0.9344    0.3009 H         1 <0>         0.0643
     51 H18        -4.1111   -3.0391   -0.5402 H         1 <0>         0.0637
     52 H19         6.8787   -0.3755   -1.1490 H         1 <0>         0.0810
     53 H20        -6.4187   -2.1448   -0.6580 H         1 <0>         0.0655
     54 H21         7.0542    1.9551   -2.0374 H         1 <0>         0.1653
     55 H22        -4.8168    2.9687    0.4145 H         1 <0>         0.0663
     56 H23         2.9660    1.8202    1.4414 H         1 <0>         0.0637
     57 H24         5.7748    4.4513   -1.7547 H         1 <0>         0.0639
     58 H25         3.9140    5.5382   -0.5355 H         1 <0>         0.0631
     59 H26        -9.8486    2.8878   -0.1655 H         1 <0>         0.1453
     60 H27        -9.2175    1.2904   -0.3869 H         1 <0>         0.1453
@<TRIPOS>BOND
     1    1   23 1
     2    1   29 1
     3    2   32 2
     4    3    8 1
     5    3    9 1
     6    3   12 1
     7    4   10 1
     8    4   11 1
     9    4   15 1
    10    5   22 1
    11    5   25 2
    12    5   54 1
    13    6   32 am
    14    6   59 1
    15    6   60 1
    16    7   33 3
    17    8   10 1
    18    8   34 1
    19    8   35 1
    20    9   11 1
    21    9   36 1
    22    9   37 1
    23   10   38 1
    24   10   39 1
    25   11   40 1
    26   11   41 1
    27   12   13 1
    28   12   42 1
    29   12   43 1
    30   13   14 1
    31   13   44 1
    32   13   45 1
    33   14   16 1
    34   14   46 1
    35   14   47 1
    36   15   18 ar
    37   15   19 ar
    38   16   17 1
    39   16   48 1
    40   16   49 1
    41   17   20 2
    42   17   22 1
    43   18   21 ar
    44   18   50 1
    45   19   24 ar
    46   19   51 1
    47   20   25 ar
    48   20   27 ar
    49   21   23 ar
    50   21   26 1
    51   22   52 1
    52   23   24 ar
    53   24   53 1
    54   25   28 ar
    55   26   29 2
    56   26   55 1
    57   27   30 ar
    58   27   56 1
    59   28   31 ar
    60   28   57 1
    61   29   32 1
    62   30   31 ar
    63   30   33 1
    64   31   58 1
