@<TRIPOS>MOLECULE
DB06174
   53    57     0     0     0
SMALL
USER_CHARGES

@<TRIPOS>ATOM
      1 O1          0.0822   -1.3390    0.8694 O.3       1 <0>        -0.4510
      2 O2         -1.7903   -1.9950   -0.6434 O.3       1 <0>        -0.4910
      3 O3         -4.4920   -2.5992   -0.0253 O.3       1 <0>        -0.4489
      4 O4         -6.0765   -0.9563    0.7451 O.3       1 <0>        -0.4525
      5 O5          4.2683   -2.0915    0.2477 O.3       1 <0>        -0.4906
      6 O6          1.5433   -3.1102    0.6103 O.2       1 <0>        -0.2448
      7 O7          5.6806    0.3008    0.0990 O.3       1 <0>        -0.4914
      8 N1         -0.5186    2.1266   -0.3512 N.3       1 <0>        -0.2946
      9 C1         -0.7602    0.6739   -0.2113 C.3       1 <0>         0.0808
     10 C2          0.1456    0.1124    0.8966 C.3       1 <0>         0.1489
     11 C3         -2.2102    0.2921    0.0456 C.ar      1 <0>         0.0223
     12 C4         -1.2257    2.9006    0.6760 C.3       1 <0>         0.0033
     13 C5         -3.1446    1.2551    0.5051 C.ar      1 <0>        -0.0342
     14 C6         -2.7423    2.6987    0.6635 C.3       1 <0>        -0.0143
     15 C7          1.5873    0.3706    0.6871 C.ar      1 <0>         0.0123
     16 C8         -2.6196   -1.0389   -0.1511 C.ar      1 <0>         0.1704
     17 C9         -0.8127    2.6052   -1.7023 C.3       1 <0>        -0.0120
     18 C10         2.2616   -0.8283    0.5657 C.ar      1 <0>         0.1108
     19 C11        -4.4768    0.8864    0.7539 C.ar      1 <0>        -0.0124
     20 C12        -3.9339   -1.3655    0.1112 C.ar      1 <0>         0.2079
     21 C13        -4.8369   -0.4293    0.5519 C.ar      1 <0>         0.1702
     22 C14         1.3076   -1.9202    0.6751 C.2       1 <0>         0.3439
     23 C15         2.2761    1.5688    0.6187 C.ar      1 <0>        -0.0505
     24 C16         3.6282   -0.9014    0.3671 C.ar      1 <0>         0.1758
     25 C17         3.6595    1.5294    0.4185 C.ar      1 <0>        -0.0159
     26 C18         4.3309    0.3017    0.2933 C.ar      1 <0>         0.1623
     27 C19        -5.8504   -2.3326    0.3787 C.3       1 <0>         0.2334
     28 C20        -2.1806   -2.6311   -1.8602 C.3       1 <0>         0.0790
     29 C21         5.2863   -2.3854    1.2063 C.3       1 <0>         0.0790
     30 C22         6.1399    0.3290   -1.2504 C.3       1 <0>         0.0790
     31 H1         -0.4631    0.1932   -1.1556 H         1 <0>         0.0554
     32 H2         -0.1641    0.4259    1.9006 H         1 <0>         0.0805
     33 H3         -0.9957    3.9684    0.5719 H         1 <0>         0.0430
     34 H4         -0.8361    2.6243    1.6641 H         1 <0>         0.0430
     35 H5         -3.1854    3.2706   -0.1611 H         1 <0>         0.0326
     36 H6         -3.1561    3.0956    1.5986 H         1 <0>         0.0326
     37 H7         -0.1614    2.1081   -2.4302 H         1 <0>         0.0391
     38 H8         -0.6034    3.6777   -1.7844 H         1 <0>         0.0391
     39 H9         -1.8509    2.4330   -2.0046 H         1 <0>         0.0391
     40 H10        -5.2060    1.6162    1.0907 H         1 <0>         0.0658
     41 H11         1.7882    2.5276    0.7469 H         1 <0>         0.0623
     42 H12         4.2174    2.4613    0.3688 H         1 <0>         0.0655
     43 H13        -6.0925   -2.9690    1.2375 H         1 <0>         0.1166
     44 H14        -6.5199   -2.5898   -0.4501 H         1 <0>         0.1166
     45 H15        -2.7620   -1.9634   -2.5055 H         1 <0>         0.0660
     46 H16        -2.7438   -3.5433   -1.6445 H         1 <0>         0.0660
     47 H17        -1.2702   -2.9149   -2.3961 H         1 <0>         0.0660
     48 H18         5.2842   -3.4658    1.3778 H         1 <0>         0.0660
     49 H19         5.1056   -1.8857    2.1643 H         1 <0>         0.0660
     50 H20         6.2662   -2.1065    0.8091 H         1 <0>         0.0660
     51 H21         7.2331    0.3112   -1.2407 H         1 <0>         0.0660
     52 H22         5.8089    1.2456   -1.7488 H         1 <0>         0.0660
     53 H23         5.7810   -0.5477   -1.7989 H         1 <0>         0.0660
@<TRIPOS>BOND
     1    1   10 1
     2    1   22 1
     3    2   16 1
     4    2   28 1
     5    3   20 1
     6    3   27 1
     7    4   21 1
     8    4   27 1
     9    5   24 1
    10    5   29 1
    11    6   22 2
    12    7   26 1
    13    7   30 1
    14    8    9 1
    15    8   12 1
    16    8   17 1
    17    9   10 1
    18    9   11 1
    19    9   31 1
    20   10   15 1
    21   10   32 1
    22   11   13 ar
    23   11   16 ar
    24   12   14 1
    25   12   33 1
    26   12   34 1
    27   13   14 1
    28   13   19 ar
    29   14   35 1
    30   14   36 1
    31   15   18 ar
    32   15   23 ar
    33   16   20 ar
    34   17   37 1
    35   17   38 1
    36   17   39 1
    37   18   22 1
    38   18   24 ar
    39   19   21 ar
    40   19   40 1
    41   20   21 ar
    42   23   25 ar
    43   23   41 1
    44   24   26 ar
    45   25   26 ar
    46   25   42 1
    47   27   43 1
    48   27   44 1
    49   28   45 1
    50   28   46 1
    51   28   47 1
    52   29   48 1
    53   29   49 1
    54   29   50 1
    55   30   51 1
    56   30   52 1
    57   30   53 1
