@<TRIPOS>MOLECULE
DB06762
   37    37     0     0     0
SMALL
USER_CHARGES

@<TRIPOS>ATOM
      1 N1         -0.0813    0.3334    0.3024 N.2       1 <0>        -0.1087
      2 N2          2.1181    1.2135   -0.0614 N.pl3     1 <0>        -0.2426
      3 N3          0.1801    2.5547   -0.4049 N.pl3     1 <0>        -0.1774
      4 N4          4.6428   -2.1410    0.1684 N.ar      1 <0>        -0.2630
      5 N5          1.6060    4.0353   -1.8331 N.1       1 <0>        -0.1538
      6 C1         -2.3078   -0.6480   -0.1913 C.3       1 <0>        -0.0010
      7 C2         -1.5208    0.6350    0.2163 C.3       1 <0>         0.1173
      8 C3         -1.8064   -1.2495   -1.5177 C.3       1 <0>        -0.0568
      9 C4         -2.1640   -1.7157    0.9149 C.3       1 <0>        -0.0568
     10 C5         -3.8087   -0.3265   -0.3401 C.3       1 <0>        -0.0568
     11 C6         -1.9428    1.2809    1.5354 C.3       1 <0>        -0.0273
     12 C7          0.7345    1.2834   -0.0049 C.2       1 <0>         0.4002
     13 C8          2.9667    0.0865    0.0156 C.ar      1 <0>         0.1029
     14 C9          4.3009    0.2438    0.3680 C.ar      1 <0>        -0.0051
     15 C10         2.4666   -1.1792   -0.2608 C.ar      1 <0>        -0.0051
     16 C11         0.9492    3.3455   -1.1704 C.1       1 <0>         0.2552
     17 C12         5.0911   -0.8927    0.4298 C.ar      1 <0>         0.0308
     18 C13         3.3389   -2.2521   -0.1711 C.ar      1 <0>         0.0308
     19 H1         -1.7537    1.3208   -0.6067 H         1 <0>         0.0732
     20 H2         -2.4058   -2.1182   -1.8131 H         1 <0>         0.0236
     21 H3         -1.8665   -0.5134   -2.3269 H         1 <0>         0.0236
     22 H4         -0.7668   -1.5825   -1.4443 H         1 <0>         0.0236
     23 H5         -2.6716   -2.6437    0.6249 H         1 <0>         0.0236
     24 H6         -1.1147   -1.9677    1.1022 H         1 <0>         0.0236
     25 H7         -2.6117   -1.3948    1.8608 H         1 <0>         0.0236
     26 H8         -3.9696    0.4758   -1.0687 H         1 <0>         0.0236
     27 H9         -4.2622   -0.0197    0.6078 H         1 <0>         0.0236
     28 H10        -4.3658   -1.2041   -0.6889 H         1 <0>         0.0236
     29 H11        -2.9986    1.5652    1.5258 H         1 <0>         0.0264
     30 H12        -1.7756    0.6113    2.3852 H         1 <0>         0.0264
     31 H13        -1.3728    2.1900    1.7520 H         1 <0>         0.0264
     32 H14         2.6334    2.0895   -0.0419 H         1 <0>         0.2648
     33 H15        -0.7736    2.8195   -0.1989 H         1 <0>         0.2780
     34 H16         4.7228    1.2180    0.5908 H         1 <0>         0.0667
     35 H17         1.4478   -1.3659   -0.5713 H         1 <0>         0.0667
     36 H18         6.1397   -0.8260    0.7004 H         1 <0>         0.0830
     37 H19         3.0021   -3.2613   -0.3843 H         1 <0>         0.0830
@<TRIPOS>BOND
     1    1    7 1
     2    1   12 2
     3    2   12 1
     4    2   13 1
     5    2   32 1
     6    3   12 1
     7    3   16 1
     8    3   33 1
     9    4   17 ar
    10    4   18 ar
    11    5   16 3
    12    6    7 1
    13    6    8 1
    14    6    9 1
    15    6   10 1
    16    7   11 1
    17    7   19 1
    18    8   20 1
    19    8   21 1
    20    8   22 1
    21    9   23 1
    22    9   24 1
    23    9   25 1
    24   10   26 1
    25   10   27 1
    26   10   28 1
    27   11   29 1
    28   11   30 1
    29   11   31 1
    30   13   14 ar
    31   13   15 ar
    32   14   17 ar
    33   14   34 1
    34   15   18 ar
    35   15   35 1
    36   17   36 1
    37   18   37 1
