@<TRIPOS>MOLECULE
DB06714
   32    32     0     0     0
SMALL
USER_CHARGES

@<TRIPOS>ATOM
      1 N1         -2.1737   -0.4965    0.9213 N.3       1 <0>        -0.3165
      2 C1          0.6427    0.3257    0.2317 C.3       1 <0>        -0.0396
      3 C2          1.0093   -0.7137   -0.8364 C.3       1 <0>        -0.0502
      4 C3          1.8094    1.2920    0.4770 C.3       1 <0>        -0.0502
      5 C4         -0.6165    1.0914   -0.1703 C.3       1 <0>        -0.0350
      6 C5          2.2958   -1.4560   -0.4824 C.3       1 <0>        -0.0528
      7 C6          3.0947    0.5462    0.8286 C.3       1 <0>        -0.0528
      8 C7          3.4509   -0.4920   -0.2309 C.3       1 <0>        -0.0530
      9 C8         -1.8534    0.1955   -0.3271 C.3       1 <0>         0.0048
     10 C9         -3.0614    1.0296   -0.7515 C.3       1 <0>        -0.0497
     11 C10        -3.3149   -1.3800    0.7416 C.3       1 <0>        -0.0156
     12 H1          0.4561   -0.2033    1.1758 H         1 <0>         0.0301
     13 H2          1.1289   -0.2254   -1.8119 H         1 <0>         0.0268
     14 H3          0.2206   -1.4644   -0.9459 H         1 <0>         0.0268
     15 H4          1.5595    1.9825    1.2911 H         1 <0>         0.0268
     16 H5          1.9818    1.9042   -0.4176 H         1 <0>         0.0268
     17 H6         -0.4347    1.6243   -1.1133 H         1 <0>         0.0283
     18 H7         -0.8228    1.8653    0.5820 H         1 <0>         0.0283
     19 H8          2.5602   -2.1433   -1.2941 H         1 <0>         0.0265
     20 H9          2.1297   -2.0679    0.4129 H         1 <0>         0.0265
     21 H10         2.9748    0.0505    1.7998 H         1 <0>         0.0265
     22 H11         3.9182    1.2615    0.9349 H         1 <0>         0.0265
     23 H12         4.3375   -1.0529    0.0856 H         1 <0>         0.0265
     24 H13         3.7116    0.0169   -1.1670 H         1 <0>         0.0265
     25 H14        -1.6678   -0.5327   -1.1242 H         1 <0>         0.0458
     26 H15        -2.7996    1.6714   -1.6012 H         1 <0>         0.0245
     27 H16        -3.4088    1.6863    0.0546 H         1 <0>         0.0245
     28 H17        -3.9021    0.4131   -1.0854 H         1 <0>         0.0245
     29 H18        -2.3718    0.1764    1.6608 H         1 <0>         0.1219
     30 H19        -4.2639   -0.8392    0.6771 H         1 <0>         0.0388
     31 H20        -3.3894   -2.0349    1.6162 H         1 <0>         0.0388
     32 H21        -3.2010   -2.0305   -0.1320 H         1 <0>         0.0388
@<TRIPOS>BOND
     1    1    9 1
     2    1   11 1
     3    1   29 1
     4    2    3 1
     5    2    4 1
     6    2    5 1
     7    2   12 1
     8    3    6 1
     9    3   13 1
    10    3   14 1
    11    4    7 1
    12    4   15 1
    13    4   16 1
    14    5    9 1
    15    5   17 1
    16    5   18 1
    17    6    8 1
    18    6   19 1
    19    6   20 1
    20    7    8 1
    21    7   21 1
    22    7   22 1
    23    8   23 1
    24    8   24 1
    25    9   10 1
    26    9   25 1
    27   10   26 1
    28   10   27 1
    29   10   28 1
    30   11   30 1
    31   11   31 1
    32   11   32 1
