@<TRIPOS>MOLECULE
DB06707
   26    26     0     0     0
SMALL
USER_CHARGES

@<TRIPOS>ATOM
      1 O1         -1.5149   -0.4620   -1.8219 O.3       1 <0>        -0.3856
      2 O2          3.4488    1.7755    0.4404 O.3       1 <0>        -0.5033
      3 O3          4.2927   -0.8699    0.3282 O.3       1 <0>        -0.5033
      4 N1         -3.3713    0.7477    0.0430 N.3       1 <0>        -0.3251
      5 C1         -1.0786    0.4404   -0.8017 C.3       1 <0>         0.0951
      6 C2         -2.0127    0.3429    0.4256 C.3       1 <0>         0.0324
      7 C3          0.3630    0.0921   -0.4979 C.ar      1 <0>        -0.0140
      8 C4         -2.0858   -1.0740    0.9978 C.3       1 <0>        -0.0472
      9 C5          1.2463    1.1045   -0.1667 C.ar      1 <0>        -0.0109
     10 C6          0.7650   -1.2305   -0.5589 C.ar      1 <0>        -0.0524
     11 C7          2.5747    0.7836    0.1126 C.ar      1 <0>         0.1586
     12 C8          2.0934   -1.5513   -0.2797 C.ar      1 <0>        -0.0162
     13 C9          2.9982   -0.5443    0.0563 C.ar      1 <0>         0.1582
     14 H1         -1.1210    1.4480   -1.2349 H         1 <0>         0.0659
     15 H2         -1.6574    1.0218    1.2102 H         1 <0>         0.0484
     16 H3         -1.1314   -1.3796    1.4368 H         1 <0>         0.0246
     17 H4         -2.8240   -1.1253    1.8074 H         1 <0>         0.0246
     18 H5         -2.3765   -1.8134    0.2436 H         1 <0>         0.0246
     19 H6          0.9109    2.1371   -0.1215 H         1 <0>         0.0659
     20 H7          0.0819   -2.0355   -0.8122 H         1 <0>         0.0622
     21 H8         -3.3569    1.7075   -0.2995 H         1 <0>         0.1185
     22 H9         -3.9738    0.7459    0.8651 H         1 <0>         0.1185
     23 H10         2.4170   -2.5877   -0.3239 H         1 <0>         0.0655
     24 H11        -2.4432   -0.2488   -2.0188 H         1 <0>         0.2103
     25 H12         2.9800    2.6277    0.4296 H         1 <0>         0.2923
     26 H13         4.7756   -0.0524    0.5409 H         1 <0>         0.2923
@<TRIPOS>BOND
     1    1    5 1
     2    1   24 1
     3    2   11 1
     4    2   25 1
     5    3   13 1
     6    3   26 1
     7    4    6 1
     8    4   21 1
     9    4   22 1
    10    5    6 1
    11    5    7 1
    12    5   14 1
    13    6    8 1
    14    6   15 1
    15    7    9 ar
    16    7   10 ar
    17    8   16 1
    18    8   17 1
    19    8   18 1
    20    9   11 ar
    21    9   19 1
    22   10   12 ar
    23   10   20 1
    24   11   13 ar
    25   12   13 ar
    26   12   23 1
