@<TRIPOS>MOLECULE
DB06819
   24    24     0     0     0
SMALL
USER_CHARGES

@<TRIPOS>ATOM
      1 O1         -4.5130    0.2284   -0.7053 O.3       1 <0>        -0.4806
      2 O2         -3.0056    1.7151    0.1093 O.2       1 <0>        -0.2510
      3 C1         -0.3989   -0.1852   -0.5113 C.3       1 <0>        -0.0272
      4 C2         -1.1921   -0.4709    0.7720 C.3       1 <0>        -0.0390
      5 C3          1.0856   -0.0298   -0.3067 C.ar      1 <0>        -0.0473
      6 C4         -2.6950   -0.6598    0.5446 C.3       1 <0>         0.0451
      7 C5          1.6098    1.2270   -0.0414 C.ar      1 <0>        -0.0586
      8 C6          1.9058   -1.1459   -0.3867 C.ar      1 <0>        -0.0586
      9 C7         -3.3806    0.5593   -0.0321 C.2       1 <0>         0.3047
     10 C8          2.9843    1.3708    0.1480 C.ar      1 <0>        -0.0615
     11 C9          3.2803   -1.0019   -0.1974 C.ar      1 <0>        -0.0615
     12 C10         3.8195    0.2564    0.0699 C.ar      1 <0>        -0.0617
     13 H1         -0.5768   -0.9939   -1.2329 H         1 <0>         0.0313
     14 H2         -0.7802    0.7200   -0.9999 H         1 <0>         0.0313
     15 H3         -0.7960   -1.3758    1.2497 H         1 <0>         0.0274
     16 H4         -1.0334    0.3494    1.4838 H         1 <0>         0.0274
     17 H5         -2.8447   -1.5017   -0.1415 H         1 <0>         0.0378
     18 H6         -3.1866   -0.9003    1.4933 H         1 <0>         0.0378
     19 H7          0.9674    2.1006    0.0235 H         1 <0>         0.0620
     20 H8          1.4954   -2.1304   -0.5923 H         1 <0>         0.0620
     21 H9          3.4041    2.3504    0.3567 H         1 <0>         0.0618
     22 H10         3.9306   -1.8697   -0.2574 H         1 <0>         0.0618
     23 H11         4.8896    0.3684    0.2177 H         1 <0>         0.0618
     24 H12        -4.9695    1.0194   -1.0635 H         1 <0>         0.2951
@<TRIPOS>BOND
     1    1    9 1
     2    1   24 1
     3    2    9 2
     4    3    4 1
     5    3    5 1
     6    3   13 1
     7    3   14 1
     8    4    6 1
     9    4   15 1
    10    4   16 1
    11    5    7 ar
    12    5    8 ar
    13    6    9 1
    14    6   17 1
    15    6   18 1
    16    7   10 ar
    17    7   19 1
    18    8   11 ar
    19    8   20 1
    20   10   12 ar
    21   10   21 1
    22   11   12 ar
    23   11   22 1
    24   12   23 1
