@<TRIPOS>MOLECULE
DB06590
   64    68     0     0     0
SMALL
USER_CHARGES

@<TRIPOS>ATOM
      1 S1          0.9552   -2.0190    2.1003 S.3       1 <0>        -0.1303
      2 S2         -2.5335   -4.5704    1.2861 S.3       1 <0>        -0.0644
      3 S3         -5.0253   -3.1426    0.2637 S.3       1 <0>        -0.0685
      4 S4          0.6611    4.0712   -1.6323 S.3       1 <0>         0.0497
      5 P1         -1.5418    0.8829   -3.3985 P.3       1 <0>         0.4232
      6 O1          1.7178   -2.8741   -2.4058 O.2       1 <0>        -0.2731
      7 O2         -1.6493   -3.3911   -2.0029 O.co2     1 <0>        -0.5433
      8 O3         -0.8393   -5.5013   -1.6503 O.co2     1 <0>        -0.5433
      9 O4          3.8377   -0.4775   -2.1367 O.2       1 <0>        -0.2683
     10 O5          5.2570    1.0826    0.1446 O.3       1 <0>        -0.3934
     11 O6         -1.8051   -0.0361   -2.0798 O.3       1 <0>        -0.3096
     12 O7         -3.0785    1.1029   -3.8896 O.3       1 <0>        -0.3096
     13 O8         -0.7455    0.1144   -4.4236 O.2       1 <0>        -0.2366
     14 N1          0.9344   -3.2950   -0.2237 N.am      1 <0>        -0.2526
     15 N2          2.7796   -0.8509   -0.0748 N.am      1 <0>        -0.2963
     16 N3          4.2384    1.9804   -0.2041 N.2       1 <0>        -0.0760
     17 N4         -2.9812   -1.9170    1.2650 N.2       1 <0>        -0.2324
     18 N5          1.0621    1.5860   -1.9207 N.2       1 <0>        -0.2017
     19 N6          2.1032    3.4993   -1.0048 N.2       1 <0>        -0.1854
     20 N7         -3.1944    3.0998    1.5103 N.ar      1 <0>        -0.2064
     21 N8         -1.0029    2.3448   -2.8325 N.pl3     1 <0>        -0.2297
     22 C1          1.8220   -3.0485    0.8961 C.3       1 <0>         0.1041
     23 C2          2.7317   -2.3120   -0.1124 C.3       1 <0>         0.1286
     24 C3          1.7691   -2.8749   -1.1982 C.2       1 <0>         0.2439
     25 C4         -0.3211   -3.8056   -0.1125 C.2       1 <0>         0.0704
     26 C5         -0.3586   -3.2588    2.3728 C.3       1 <0>         0.0288
     27 C6         -0.9448   -3.8441    1.0897 C.2       1 <0>         0.0252
     28 C7         -1.0111   -4.2843   -1.3936 C.2       1 <0>         0.0867
     29 C8          3.3295   -0.0944   -1.0953 C.2       1 <0>         0.2700
     30 C9          3.2665    1.3876   -0.8296 C.2       1 <0>         0.2084
     31 C10        -3.4613   -3.1044    0.9688 C.2       1 <0>         0.1396
     32 C11         2.1166    2.1906   -1.2580 C.2       1 <0>         0.1969
     33 C12        -3.9114   -0.9589    0.9121 C.2       1 <0>         0.0798
     34 C13        -5.0813   -1.4309    0.3547 C.2       1 <0>         0.0042
     35 C14        -3.6644    0.4392    1.1180 C.ar      1 <0>         0.0121
     36 C15         0.1780    2.5217   -2.1894 C.2       1 <0>         0.1868
     37 C16        -2.3632    0.9309    1.0746 C.ar      1 <0>         0.0113
     38 C17        -4.7256    1.3059    1.3616 C.ar      1 <0>         0.0113
     39 C18         6.2724    1.8086    0.8196 C.3       1 <0>         0.1151
     40 C19        -2.1543    2.2876    1.2777 C.ar      1 <0>         0.1716
     41 C20        -4.4568    2.6531    1.5575 C.ar      1 <0>         0.1716
     42 C21        -2.9429    4.5226    1.7209 C.3       1 <0>         0.1404
     43 C22         7.3847    0.8575    1.2063 C.3       1 <0>        -0.0281
     44 H1          2.2623   -3.9671    1.3019 H         1 <0>         0.0644
     45 H2          3.7392   -2.7404   -0.1735 H         1 <0>         0.0622
     46 H3          2.4004   -0.3565    0.7293 H         1 <0>         0.1499
     47 H4          0.0548   -4.0711    2.9819 H         1 <0>         0.0431
     48 H5         -1.1276   -2.7615    2.9727 H         1 <0>         0.0431
     49 H6         -5.9453   -0.8935   -0.0107 H         1 <0>         0.0716
     50 H7         -1.5108    0.2857    0.8840 H         1 <0>         0.0683
     51 H8         -5.7560    0.9698    1.4235 H         1 <0>         0.0683
     52 H9          5.8545    2.2767    1.7180 H         1 <0>         0.0720
     53 H10         6.6652    2.5912    0.1604 H         1 <0>         0.0720
     54 H11        -1.1655    2.7301    1.2607 H         1 <0>         0.1376
     55 H12        -5.2375    3.3762    1.7606 H         1 <0>         0.1376
     56 H13        -1.5707    3.1804   -2.9583 H         1 <0>         0.1596
     57 H14        -3.8022    5.1030    1.3735 H         1 <0>         0.0993
     58 H15        -2.0599    4.8268    1.1518 H         1 <0>         0.0993
     59 H16        -2.7823    4.6757    2.7913 H         1 <0>         0.0993
     60 H17         8.1862    1.3854    1.7304 H         1 <0>         0.0263
     61 H18         7.8029    0.3718    0.3184 H         1 <0>         0.0263
     62 H19         7.0032    0.0614    1.8542 H         1 <0>         0.0263
     63 H20        -2.0812   -0.9692   -2.2043 H         1 <0>         0.2213
     64 H21        -3.5532    0.3473   -4.2970 H         1 <0>         0.2213
@<TRIPOS>BOND
     1    1   22 1
     2    1   26 1
     3    2   27 1
     4    2   31 1
     5    3   31 1
     6    3   34 1
     7    4   19 1
     8    4   36 1
     9    5   11 1
    10    5   12 1
    11    5   13 2
    12    5   21 1
    13    6   24 2
    14    7   28 2
    15    8   28 1
    16    9   29 2
    17   10   16 1
    18   10   39 1
    19   11   63 1
    20   12   64 1
    21   14   22 1
    22   14   24 am
    23   14   25 1
    24   15   23 1
    25   15   29 am
    26   15   46 1
    27   16   30 2
    28   17   31 2
    29   17   33 1
    30   18   32 1
    31   18   36 2
    32   19   32 2
    33   20   40 ar
    34   20   41 ar
    35   20   42 1
    36   21   36 1
    37   21   56 1
    38   22   23 1
    39   22   44 1
    40   23   24 1
    41   23   45 1
    42   25   27 2
    43   25   28 1
    44   26   27 1
    45   26   47 1
    46   26   48 1
    47   29   30 1
    48   30   32 1
    49   33   34 2
    50   33   35 1
    51   34   49 1
    52   35   37 ar
    53   35   38 ar
    54   37   40 ar
    55   37   50 1
    56   38   41 ar
    57   38   51 1
    58   39   43 1
    59   39   52 1
    60   39   53 1
    61   40   54 1
    62   41   55 1
    63   42   57 1
    64   42   58 1
    65   42   59 1
    66   43   60 1
    67   43   61 1
    68   43   62 1
