@<TRIPOS>MOLECULE
DB06814
   45    47     0     0     0
SMALL
USER_CHARGES

@<TRIPOS>ATOM
      1 O1         -2.8812    3.2345   -0.1316 O.3       1 <0>        -0.3859
      2 O2          3.1552   -1.1452    1.6205 O.3       1 <0>        -0.4526
      3 O3          4.1622   -1.9979   -0.3961 O.3       1 <0>        -0.4526
      4 O4          1.7339    2.8054   -2.4463 O.3       1 <0>        -0.5033
      5 O5          3.3633    3.2181   -0.2324 O.3       1 <0>        -0.5033
      6 N1         -1.8015   -0.2722    0.3866 N.3       1 <0>        -0.3104
      7 C1         -2.2072   -1.5366   -0.2345 C.3       1 <0>         0.0089
      8 C2         -1.3451   -2.6985    0.3122 C.3       1 <0>        -0.0123
      9 C3         -2.5465    0.8391   -0.1810 C.3       1 <0>         0.0264
     10 C4          0.1209   -2.5295    0.0908 C.ar      1 <0>        -0.0422
     11 C5         -2.1379    2.1670    0.4570 C.3       1 <0>         0.0927
     12 C6         -3.6981   -1.7461    0.0306 C.3       1 <0>        -0.0494
     13 C7         -0.6653    2.4488    0.2687 C.ar      1 <0>        -0.0143
     14 C8          0.8971   -1.8793    1.0533 C.ar      1 <0>        -0.0129
     15 C9          0.7086   -3.0268   -1.0857 C.ar      1 <0>        -0.0548
     16 C10         2.2477   -1.7469    0.8041 C.ar      1 <0>         0.1665
     17 C11         2.8227   -2.2337   -0.3475 C.ar      1 <0>         0.1662
     18 C12         2.0789   -2.8795   -1.3134 C.ar      1 <0>        -0.0159
     19 C13        -0.1429    2.4970   -1.0133 C.ar      1 <0>        -0.0109
     20 C14         0.1333    2.6525    1.3818 C.ar      1 <0>        -0.0524
     21 C15         4.3660   -1.3085    0.8541 C.3       1 <0>         0.2332
     22 C16         1.2166    2.7562   -1.1869 C.ar      1 <0>         0.1586
     23 C17         1.4927    2.9117    1.2084 C.ar      1 <0>        -0.0162
     24 C18         2.0344    2.9637   -0.0760 C.ar      1 <0>         0.1582
     25 H1         -2.0422   -1.4818   -1.3189 H         1 <0>         0.0461
     26 H2         -1.6740   -3.6390   -0.1504 H         1 <0>         0.0328
     27 H3         -1.5376   -2.8307    1.3863 H         1 <0>         0.0328
     28 H4         -1.9510   -0.3128    1.3944 H         1 <0>         0.1223
     29 H5         -2.4267    0.8783   -1.2710 H         1 <0>         0.0453
     30 H6         -3.6235    0.7483   -0.0017 H         1 <0>         0.0453
     31 H7         -2.3883    2.1558    1.5254 H         1 <0>         0.0656
     32 H8         -4.3322   -1.1093   -0.5941 H         1 <0>         0.0245
     33 H9         -3.9581   -1.5861    1.0833 H         1 <0>         0.0245
     34 H10        -3.9781   -2.7778   -0.2138 H         1 <0>         0.0245
     35 H11         0.4627   -1.4919    1.9687 H         1 <0>         0.0658
     36 H12         0.0997   -3.5300   -1.8330 H         1 <0>         0.0621
     37 H13         2.5355   -3.2606   -2.2197 H         1 <0>         0.0655
     38 H14        -0.7774    2.3492   -1.8825 H         1 <0>         0.0659
     39 H15        -0.2763    2.6134    2.3870 H         1 <0>         0.0622
     40 H16        -3.8248    3.0500    0.0136 H         1 <0>         0.2103
     41 H17         5.0875   -1.8750    1.4540 H         1 <0>         0.1166
     42 H18         4.7839   -0.3172    0.6439 H         1 <0>         0.1166
     43 H19         2.1247    3.0714    2.0778 H         1 <0>         0.0655
     44 H20         1.0230    2.6366   -3.0882 H         1 <0>         0.2923
     45 H21         3.5652    3.2156   -1.1843 H         1 <0>         0.2923
@<TRIPOS>BOND
     1    1   11 1
     2    1   40 1
     3    2   16 1
     4    2   21 1
     5    3   17 1
     6    3   21 1
     7    4   22 1
     8    4   44 1
     9    5   24 1
    10    5   45 1
    11    6    7 1
    12    6    9 1
    13    6   28 1
    14    7    8 1
    15    7   12 1
    16    7   25 1
    17    8   10 1
    18    8   26 1
    19    8   27 1
    20    9   11 1
    21    9   29 1
    22    9   30 1
    23   10   14 ar
    24   10   15 ar
    25   11   13 1
    26   11   31 1
    27   12   32 1
    28   12   33 1
    29   12   34 1
    30   13   19 ar
    31   13   20 ar
    32   14   16 ar
    33   14   35 1
    34   15   18 ar
    35   15   36 1
    36   16   17 ar
    37   17   18 ar
    38   18   37 1
    39   19   22 ar
    40   19   38 1
    41   20   23 ar
    42   20   39 1
    43   21   41 1
    44   21   42 1
    45   22   24 ar
    46   23   24 ar
    47   23   43 1
