@<TRIPOS>MOLECULE
DB06626
   46    49     0     0     0
SMALL
USER_CHARGES

@<TRIPOS>ATOM
      1 S1          3.1934    0.7569   -1.9787 S.3       1 <0>        -0.0886
      2 O1          6.6072   -0.3636   -1.3891 O.2       1 <0>        -0.2702
      3 N1         -0.4461   -1.6224    1.0059 N.pl3     1 <0>        -0.2764
      4 N2         -1.7826   -1.5690    1.1310 N.2       1 <0>        -0.1733
      5 N3          5.2030   -1.7271   -0.1457 N.am      1 <0>        -0.3144
      6 N4         -6.1050    0.6478   -0.5786 N.ar      1 <0>        -0.2556
      7 C1         -1.0402   -0.1248   -0.4819 C.ar      1 <0>         0.0268
      8 C2          0.0628   -0.7797    0.0547 C.ar      1 <0>         0.0674
      9 C3         -2.1405   -0.6567    0.2243 C.2       1 <0>         0.0932
     10 C4          1.3712   -0.5420   -0.3716 C.ar      1 <0>        -0.0225
     11 C5          1.5454    0.4044   -1.3866 C.ar      1 <0>         0.0148
     12 C6         -0.8491    0.8233   -1.5008 C.ar      1 <0>        -0.0494
     13 C7          0.4555    1.0765   -1.9430 C.ar      1 <0>        -0.0472
     14 C8          3.9809    1.3352   -0.4835 C.ar      1 <0>         0.0248
     15 C9         -3.4904   -0.2751    0.0068 C.2       1 <0>        -0.0320
     16 C10         5.0975    0.6956    0.0593 C.ar      1 <0>         0.0504
     17 C11         3.4516    2.4620    0.1492 C.ar      1 <0>        -0.0473
     18 C12        -4.6038   -0.7565    0.6213 C.2       1 <0>        -0.0342
     19 C13         5.6821    1.1810    1.2292 C.ar      1 <0>        -0.0486
     20 C14         4.0361    2.9472    1.3190 C.ar      1 <0>        -0.0607
     21 C15         5.6938   -0.4845   -0.5568 C.2       1 <0>         0.2449
     22 C16         5.1512    2.3067    1.8590 C.ar      1 <0>        -0.0610
     23 C17        -5.9849   -0.3252    0.3398 C.ar      1 <0>         0.0639
     24 C18        -7.0259   -0.9229    1.0119 C.ar      1 <0>        -0.0363
     25 C19        -8.3105   -0.4821    0.7144 C.ar      1 <0>        -0.0583
     26 C20         5.7068   -2.9863   -0.6453 C.3       1 <0>         0.0004
     27 C21        -7.3684    1.0503   -0.8416 C.ar      1 <0>         0.0282
     28 C22        -8.4938    0.5230   -0.2288 C.ar      1 <0>        -0.0436
     29 H1          2.2012   -1.0811    0.0719 H         1 <0>         0.0650
     30 H2         -1.6838    1.3562   -1.9458 H         1 <0>         0.0625
     31 H3          0.6005    1.8118   -2.7318 H         1 <0>         0.0629
     32 H4          0.0647   -2.2597    1.6042 H         1 <0>         0.1889
     33 H5         -3.6378    0.4928   -0.7504 H         1 <0>         0.0640
     34 H6          2.5880    2.9859   -0.2536 H         1 <0>         0.0629
     35 H7         -4.4975   -1.5282    1.3810 H         1 <0>         0.0639
     36 H8          6.5516    0.6920    1.6611 H         1 <0>         0.0625
     37 H9          3.6240    3.8248    1.8086 H         1 <0>         0.0618
     38 H10         5.6065    2.6849    2.7697 H         1 <0>         0.0618
     39 H11         4.4803   -1.7572    0.5673 H         1 <0>         0.1487
     40 H12        -6.8763   -1.7065    1.7468 H         1 <0>         0.0639
     41 H13        -9.1675   -0.9208    1.2167 H         1 <0>         0.0619
     42 H14         4.8889   -3.7104   -0.6445 H         1 <0>         0.0426
     43 H15         6.5013   -3.3270    0.0229 H         1 <0>         0.0426
     44 H16         6.1022   -2.8684   -1.6572 H         1 <0>         0.0426
     45 H17        -7.4573    1.8363   -1.5843 H         1 <0>         0.0830
     46 H18        -9.4861    0.8823   -0.4765 H         1 <0>         0.0633
@<TRIPOS>BOND
     1    1   11 1
     2    1   14 1
     3    2   21 2
     4    3    4 1
     5    3    8 2
     6    3   32 1
     7    4    9 1
     8    5   21 am
     9    5   26 1
    10    5   39 1
    11    6   23 ar
    12    6   27 ar
    13    7    8 ar
    14    7    9 2
    15    7   12 ar
    16    8   10 ar
    17    9   15 1
    18   10   11 ar
    19   10   29 1
    20   11   13 ar
    21   12   13 ar
    22   12   30 1
    23   13   31 1
    24   14   16 ar
    25   14   17 ar
    26   15   18 2
    27   15   33 1
    28   16   19 ar
    29   16   21 1
    30   17   20 ar
    31   17   34 1
    32   18   23 1
    33   18   35 1
    34   19   22 ar
    35   19   36 1
    36   20   22 ar
    37   20   37 1
    38   22   38 1
    39   23   24 ar
    40   24   25 ar
    41   24   40 1
    42   25   28 ar
    43   25   41 1
    44   26   42 1
    45   26   43 1
    46   26   44 1
    47   27   28 ar
    48   27   45 1
    49   28   46 1
