@<TRIPOS>MOLECULE
DB06603
   49    51     0     0     0
SMALL
USER_CHARGES

@<TRIPOS>ATOM
      1 O1          8.7860    0.8377    0.9660 O.2       1 <0>        -0.2687
      2 O2         10.4321   -1.2580    0.5030 O.3       1 <0>        -0.2949
      3 N1         -6.2175    0.9605    0.0428 N.pl3     1 <0>        -0.3579
      4 N2         -0.3776    0.4835    0.0504 N.3       1 <0>        -0.3117
      5 N3          9.0727   -1.3112    0.1647 N.am      1 <0>        -0.1940
      6 C1         -4.1419    0.3622    0.5537 C.2       1 <0>        -0.0182
      7 C2         -2.7082    0.4232    0.9077 C.3       1 <0>        -0.0129
      8 C3         -4.9107   -0.8195    0.3601 C.ar      1 <0>         0.0031
      9 C4         -4.9729    1.4400    0.3518 C.cat     1 <0>         0.0171
     10 C5         -6.2090   -0.4161    0.0407 C.ar      1 <0>         0.0469
     11 C6         -1.7870    0.4523   -0.3251 C.3       1 <0>         0.0002
     12 C7         -4.6257   -2.1979    0.4261 C.ar      1 <0>        -0.0523
     13 C8         -4.7123    2.8910    0.4196 C.3       1 <0>        -0.0242
     14 C9         -7.2406   -1.3259   -0.2170 C.ar      1 <0>        -0.0378
     15 C10         0.4729    0.5208   -1.1306 C.3       1 <0>         0.0213
     16 C11        -5.6477   -3.1193    0.1707 C.ar      1 <0>        -0.0611
     17 C12        -6.9343   -2.6877   -0.1456 C.ar      1 <0>        -0.0598
     18 C13         1.9338    0.5605   -0.7687 C.ar      1 <0>        -0.0335
     19 C14         2.6325   -0.6290   -0.6169 C.ar      1 <0>        -0.0568
     20 C15         2.5608    1.7857   -0.5912 C.ar      1 <0>        -0.0568
     21 C16         3.9858   -0.5925   -0.2807 C.ar      1 <0>        -0.0543
     22 C17         3.9142    1.8223   -0.2552 C.ar      1 <0>        -0.0543
     23 C18         4.6266    0.6331   -0.0999 C.ar      1 <0>        -0.0249
     24 C19         6.0377    0.6710    0.2506 C.2       1 <0>        -0.0496
     25 C20         6.9163   -0.3389    0.0611 C.2       1 <0>         0.0027
     26 C21         8.3454   -0.1843    0.4504 C.2       1 <0>         0.2593
     27 H1         -2.5148    1.3102    1.5255 H         1 <0>         0.0326
     28 H2         -2.4480   -0.4383    1.5367 H         1 <0>         0.0326
     29 H3         -2.0301    1.3359   -0.9289 H         1 <0>         0.0427
     30 H4         -1.9892   -0.4304   -0.9456 H         1 <0>         0.0427
     31 H5         -7.0286    1.5303   -0.1557 H         1 <0>         0.1656
     32 H6         -0.1602   -0.3434    0.6065 H         1 <0>         0.1223
     33 H7         -3.6281   -2.5519    0.6698 H         1 <0>         0.0624
     34 H8         -4.5009    3.1926    1.4506 H         1 <0>         0.0292
     35 H9         -3.8490    3.1576   -0.1988 H         1 <0>         0.0292
     36 H10        -5.5673    3.4769    0.0663 H         1 <0>         0.0292
     37 H11        -8.2424   -0.9909   -0.4635 H         1 <0>         0.0638
     38 H12         0.2859   -0.3530   -1.7689 H         1 <0>         0.0473
     39 H13         0.2364    1.4009   -1.7433 H         1 <0>         0.0473
     40 H14        -5.4337   -4.1836    0.2197 H         1 <0>         0.0618
     41 H15        -7.7130   -3.4208   -0.3404 H         1 <0>         0.0618
     42 H16         2.1407   -1.5887   -0.7495 H         1 <0>         0.0621
     43 H17         2.0149    2.7177   -0.7082 H         1 <0>         0.0621
     44 H18         4.4937   -1.5436   -0.1502 H         1 <0>         0.0624
     45 H19         4.3969    2.7871   -0.1192 H         1 <0>         0.0624
     46 H20         6.3846    1.6046    0.6883 H         1 <0>         0.0625
     47 H21         6.6314   -1.2805   -0.3953 H         1 <0>         0.0670
     48 H22         8.7227   -2.1867   -0.2087 H         1 <0>         0.1825
     49 H23        10.5666   -2.1654    0.8246 H         1 <0>         0.2414
@<TRIPOS>BOND
     1    1   26 2
     2    2    5 1
     3    2   49 1
     4    3    9 1
     5    3   10 2
     6    3   31 1
     7    4   11 1
     8    4   15 1
     9    4   32 1
    10    5   26 am
    11    5   48 1
    12    6    7 1
    13    6    8 2
    14    6    9 1
    15    7   11 1
    16    7   27 1
    17    7   28 1
    18    8   10 ar
    19    8   12 ar
    20    9   13 1
    21   10   14 ar
    22   11   29 1
    23   11   30 1
    24   12   16 ar
    25   12   33 1
    26   13   34 1
    27   13   35 1
    28   13   36 1
    29   14   17 ar
    30   14   37 1
    31   15   18 1
    32   15   38 1
    33   15   39 1
    34   16   17 ar
    35   16   40 1
    36   17   41 1
    37   18   19 ar
    38   18   20 ar
    39   19   21 ar
    40   19   42 1
    41   20   22 ar
    42   20   43 1
    43   21   23 ar
    44   21   44 1
    45   22   23 ar
    46   22   45 1
    47   23   24 1
    48   24   25 2
    49   24   46 1
    50   25   26 1
    51   25   47 1
