@<TRIPOS>MOLECULE
DB06292
   53    55     0     0     0
SMALL
USER_CHARGES

@<TRIPOS>ATOM
      1 Cl1         1.3442   -4.6235    0.4552 Cl        1 <0>        -0.0832
      2 O1         -3.5846   -0.3307   -0.5287 O.3       1 <0>        -0.3612
      3 O2         -2.7479    3.4155    0.9576 O.3       1 <0>        -0.3865
      4 O3         -1.7628    1.0251    2.3544 O.3       1 <0>        -0.3862
      5 O4         -5.2931    2.8997   -0.2921 O.3       1 <0>        -0.3865
      6 O5         -5.8251   -0.9325   -1.9994 O.3       1 <0>        -0.3924
      7 O6          5.7805    0.6867    0.5870 O.3       1 <0>        -0.4922
      8 C1         -3.3725    2.1306    0.9434 C.3       1 <0>         0.1121
      9 C2         -2.2991    1.0422    1.0317 C.3       1 <0>         0.1137
     10 C3         -4.1791    2.0126   -0.3495 C.3       1 <0>         0.1117
     11 C4         -2.8924   -0.3413    0.7239 C.3       1 <0>         0.1125
     12 C5         -4.6834    0.5816   -0.5462 C.3       1 <0>         0.1108
     13 C6         -1.8225   -1.4130    0.6492 C.ar      1 <0>        -0.0160
     14 C7         -5.3979    0.4126   -1.8830 C.3       1 <0>         0.0729
     15 C8         -0.7867   -1.2990   -0.2768 C.ar      1 <0>        -0.0512
     16 C9         -1.8767   -2.5105    1.5068 C.ar      1 <0>        -0.0546
     17 C10         0.1974   -2.2850   -0.3454 C.ar      1 <0>        -0.0244
     18 C11        -0.8924   -3.4967    1.4382 C.ar      1 <0>        -0.0428
     19 C12         1.2914   -2.1279   -1.3516 C.3       1 <0>        -0.0010
     20 C13         0.1445   -3.3840    0.5121 C.ar      1 <0>         0.0445
     21 C14         2.4964   -1.3725   -0.8317 C.ar      1 <0>        -0.0428
     22 C15         3.5243   -2.0751   -0.2286 C.ar      1 <0>        -0.0548
     23 C16         2.5413    0.0032   -0.9710 C.ar      1 <0>        -0.0548
     24 C17         4.6338   -1.3788    0.2510 C.ar      1 <0>        -0.0197
     25 C18         3.6508    0.6994   -0.4915 C.ar      1 <0>        -0.0197
     26 C19         4.6971    0.0084    0.1195 C.ar      1 <0>         0.1205
     27 C20         6.1350    1.8908   -0.0914 C.3       1 <0>         0.0868
     28 C21         7.6295    2.1011    0.0256 C.3       1 <0>        -0.0307
     29 H1         -4.0364    2.1002    1.8160 H         1 <0>         0.0647
     30 H2         -1.4792    1.3019    0.3528 H         1 <0>         0.0649
     31 H3         -3.5561    2.3228   -1.1974 H         1 <0>         0.0647
     32 H4         -3.6088   -0.6186    1.5098 H         1 <0>         0.0673
     33 H5         -5.3841    0.2976    0.2508 H         1 <0>         0.0646
     34 H6         -4.7298    0.6248   -2.7244 H         1 <0>         0.0584
     35 H7         -6.2758    1.0604   -1.9580 H         1 <0>         0.0584
     36 H8         -2.2158    3.4699    1.7699 H         1 <0>         0.2100
     37 H9         -2.4850    0.8121    2.9697 H         1 <0>         0.2100
     38 H10        -5.8571    2.6261    0.4515 H         1 <0>         0.2100
     39 H11        -0.7510   -0.4507   -0.9558 H         1 <0>         0.0624
     40 H12        -2.6779   -2.6122    2.2336 H         1 <0>         0.0622
     41 H13        -0.9480   -4.3468    2.1135 H         1 <0>         0.0632
     42 H14         1.6044   -3.0941   -1.7671 H         1 <0>         0.0362
     43 H15         0.9002   -1.6031   -2.2358 H         1 <0>         0.0362
     44 H16        -5.0374   -1.4984   -1.9279 H         1 <0>         0.2095
     45 H17         3.5230   -3.1544   -0.1503 H         1 <0>         0.0622
     46 H18         1.7294    0.5512   -1.4401 H         1 <0>         0.0622
     47 H19         5.4504   -1.9231    0.7176 H         1 <0>         0.0654
     48 H20         3.6479    1.7810   -0.5891 H         1 <0>         0.0654
     49 H21         5.6052    2.7323    0.3684 H         1 <0>         0.0694
     50 H22         5.8925    1.8437   -1.1605 H         1 <0>         0.0694
     51 H23         7.9359    3.0236   -0.4757 H         1 <0>         0.0262
     52 H24         7.9301    2.1547    1.0773 H         1 <0>         0.0262
     53 H25         8.1734    1.2604   -0.4178 H         1 <0>         0.0262
@<TRIPOS>BOND
     1    1   20 1
     2    2   11 1
     3    2   12 1
     4    3    8 1
     5    3   36 1
     6    4    9 1
     7    4   37 1
     8    5   10 1
     9    5   38 1
    10    6   14 1
    11    6   44 1
    12    7   26 1
    13    7   27 1
    14    8    9 1
    15    8   10 1
    16    8   29 1
    17    9   11 1
    18    9   30 1
    19   10   12 1
    20   10   31 1
    21   11   13 1
    22   11   32 1
    23   12   14 1
    24   12   33 1
    25   13   15 ar
    26   13   16 ar
    27   14   34 1
    28   14   35 1
    29   15   17 ar
    30   15   39 1
    31   16   18 ar
    32   16   40 1
    33   17   19 1
    34   17   20 ar
    35   18   20 ar
    36   18   41 1
    37   19   21 1
    38   19   42 1
    39   19   43 1
    40   21   22 ar
    41   21   23 ar
    42   22   24 ar
    43   22   45 1
    44   23   25 ar
    45   23   46 1
    46   24   26 ar
    47   24   47 1
    48   25   26 ar
    49   25   48 1
    50   27   28 1
    51   27   49 1
    52   27   50 1
    53   28   51 1
    54   28   52 1
    55   28   53 1
