@<TRIPOS>MOLECULE
DB06077
   57    61     0     0     0
SMALL
USER_CHARGES

@<TRIPOS>ATOM
      1 F1        -10.0516    0.7428    1.7310 F         1 <0>        -0.2055
      2 O1         -4.8215    0.7596   -1.7979 O.2       1 <0>        -0.2921
      3 N1          3.5557   -0.8822   -0.2268 N.pl3     1 <0>        -0.3230
      4 N2         -0.2260   -1.2376   -0.6638 N.3       1 <0>        -0.3016
      5 N3          5.7412    0.5274    0.9624 N.pl3     1 <0>        -0.3300
      6 C1          2.6365   -1.2098   -1.3237 C.3       1 <0>         0.0328
      7 C2          1.7317    0.0530   -1.5008 C.3       1 <0>         0.0173
      8 C3          1.8457   -2.4906   -1.0823 C.3       1 <0>        -0.0209
      9 C4          0.4750    0.0502   -0.6159 C.3       1 <0>         0.0075
     10 C5          2.6822    1.1208   -1.0382 C.ar      1 <0>        -0.0185
     11 C6          3.7020    0.5176   -0.2972 C.ar      1 <0>         0.0549
     12 C7          0.6484   -2.3023   -0.1549 C.3       1 <0>         0.0006
     13 C8          4.7823   -1.5926    0.0758 C.3       1 <0>         0.0283
     14 C9          4.7486    1.2272    0.2880 C.ar      1 <0>         0.0511
     15 C10         5.4985   -0.8958    1.2440 C.3       1 <0>         0.0277
     16 C11        -1.4587   -1.1739    0.1227 C.3       1 <0>        -0.0007
     17 C12         2.6539    2.4873   -1.2134 C.ar      1 <0>        -0.0563
     18 C13         4.7173    2.6154    0.0971 C.ar      1 <0>        -0.0388
     19 C14         3.6839    3.2353   -0.6385 C.ar      1 <0>        -0.0596
     20 C15        -2.5463   -0.4327   -0.6575 C.3       1 <0>        -0.0332
     21 C16         6.7819    1.2199    1.7012 C.3       1 <0>         0.0008
     22 C17        -3.8589   -0.3361    0.1250 C.3       1 <0>         0.0116
     23 C18        -4.9821    0.3283   -0.6585 C.2       1 <0>         0.1632
     24 C19        -6.3273    0.4375   -0.0251 C.ar      1 <0>         0.0176
     25 C20        -6.5356   -0.0637    1.2600 C.ar      1 <0>        -0.0486
     26 C21        -7.3770    1.0420   -0.7165 C.ar      1 <0>        -0.0486
     27 C22        -7.7938    0.0393    1.8532 C.ar      1 <0>        -0.0258
     28 C23        -8.6352    1.1449   -0.1234 C.ar      1 <0>        -0.0258
     29 C24        -8.8436    0.6437    1.1614 C.ar      1 <0>         0.1234
     30 H1          3.2403   -1.3418   -2.2346 H         1 <0>         0.0506
     31 H2          1.4665    0.1690   -2.5581 H         1 <0>         0.0380
     32 H3          1.4732   -2.8502   -2.0512 H         1 <0>         0.0296
     33 H4          2.4926   -3.2825   -0.6884 H         1 <0>         0.0296
     34 H5          0.7323    0.2965    0.4249 H         1 <0>         0.0433
     35 H6         -0.1624    0.8689   -0.9681 H         1 <0>         0.0433
     36 H7          0.9863   -2.0884    0.8674 H         1 <0>         0.0427
     37 H8          0.1039   -3.2542   -0.1230 H         1 <0>         0.0427
     38 H9          4.5613   -2.6300    0.3475 H         1 <0>         0.0479
     39 H10         5.4348   -1.6111   -0.8067 H         1 <0>         0.0479
     40 H11         6.4476   -1.4106    1.4326 H         1 <0>         0.0479
     41 H12         4.8933   -0.9779    2.1561 H         1 <0>         0.0479
     42 H13        -1.2935   -0.7111    1.1042 H         1 <0>         0.0427
     43 H14        -1.8348   -2.1877    0.3130 H         1 <0>         0.0427
     44 H15         1.8632    2.9703   -1.7759 H         1 <0>         0.0621
     45 H16         5.4939    3.2539    0.5114 H         1 <0>         0.0637
     46 H17         3.6939    4.3157   -0.7609 H         1 <0>         0.0618
     47 H18        -2.2343    0.5856   -0.9130 H         1 <0>         0.0282
     48 H19        -2.7288   -0.9484   -1.6096 H         1 <0>         0.0282
     49 H20         7.3471    1.8938    1.0486 H         1 <0>         0.0428
     50 H21         6.3540    1.7952    2.5292 H         1 <0>         0.0428
     51 H22         7.5021    0.5124    2.1265 H         1 <0>         0.0428
     52 H23        -3.6829    0.2415    1.0396 H         1 <0>         0.0345
     53 H24        -4.1777   -1.3508    0.3898 H         1 <0>         0.0345
     54 H25        -5.7492   -0.5391    1.8369 H         1 <0>         0.0625
     55 H26        -7.2397    1.4406   -1.7181 H         1 <0>         0.0625
     56 H27        -7.9570   -0.3500    2.8539 H         1 <0>         0.0646
     57 H28        -9.4529    1.6155   -0.6612 H         1 <0>         0.0646
@<TRIPOS>BOND
     1    1   29 1
     2    2   23 2
     3    3    6 1
     4    3   11 1
     5    3   13 1
     6    4    9 1
     7    4   12 1
     8    4   16 1
     9    5   14 1
    10    5   15 1
    11    5   21 1
    12    6    7 1
    13    6    8 1
    14    6   30 1
    15    7    9 1
    16    7   10 1
    17    7   31 1
    18    8   12 1
    19    8   32 1
    20    8   33 1
    21    9   34 1
    22    9   35 1
    23   10   11 ar
    24   10   17 ar
    25   11   14 ar
    26   12   36 1
    27   12   37 1
    28   13   15 1
    29   13   38 1
    30   13   39 1
    31   14   18 ar
    32   15   40 1
    33   15   41 1
    34   16   20 1
    35   16   42 1
    36   16   43 1
    37   17   19 ar
    38   17   44 1
    39   18   19 ar
    40   18   45 1
    41   19   46 1
    42   20   22 1
    43   20   47 1
    44   20   48 1
    45   21   49 1
    46   21   50 1
    47   21   51 1
    48   22   23 1
    49   22   52 1
    50   22   53 1
    51   23   24 1
    52   24   25 ar
    53   24   26 ar
    54   25   27 ar
    55   25   54 1
    56   26   28 ar
    57   26   55 1
    58   27   29 ar
    59   27   56 1
    60   28   29 ar
    61   28   57 1
