@<TRIPOS>MOLECULE
DB06267
   72    75     0     0     0
SMALL
USER_CHARGES

@<TRIPOS>ATOM
      1 S1          2.6134   -2.9232    2.3667 S.o2      1 <0>         0.0584
      2 O1          2.7688   -1.9134    3.3963 O.2       1 <0>        -0.1530
      3 O2          2.5791   -4.3288    2.7223 O.2       1 <0>        -0.1530
      4 O3         -2.3881   -1.7891   -0.5910 O.3       1 <0>        -0.4913
      5 O4          0.2334    3.6270    0.8475 O.2       1 <0>        -0.2634
      6 N1          6.9592    0.4972   -0.9531 N.3       1 <0>        -0.3024
      7 N2          3.7916   -2.6879    1.1637 N.pl3     1 <0>        -0.1899
      8 N3         -2.4697    0.5748    0.6292 N.pl3     1 <0>        -0.3361
      9 N4         -2.7401    4.0138    0.6309 N.pl3     1 <0>        -0.2598
     10 N5         -4.0669    3.7753    0.5360 N.2       1 <0>        -0.1736
     11 N6         -0.1921    1.3591    0.8008 N.2       1 <0>        -0.1893
     12 C1          5.5593    0.2175   -0.6042 C.3       1 <0>         0.0114
     13 C2          5.2102    1.3733    0.3356 C.3       1 <0>        -0.0361
     14 C3          6.1612    2.5028   -0.0451 C.3       1 <0>        -0.0388
     15 C4          7.0110    1.9444   -1.1745 C.3       1 <0>        -0.0011
     16 C5          5.3617   -1.1359    0.0668 C.3       1 <0>        -0.0231
     17 C6          3.9220   -1.3697    0.5058 C.3       1 <0>         0.0189
     18 C7          7.4209   -0.2392   -2.1237 C.3       1 <0>        -0.0125
     19 C8          1.1205   -2.5779    1.4855 C.ar      1 <0>         0.1061
     20 C9          0.6163   -1.2779    1.4489 C.ar      1 <0>        -0.0212
     21 C10        -0.5617   -1.0060    0.7531 C.ar      1 <0>         0.0608
     22 C11         0.4464   -3.6064    0.8264 C.ar      1 <0>        -0.0319
     23 C12        -2.8849    1.8502    0.6062 C.2       1 <0>         0.0947
     24 C13        -1.0859    0.3979    0.7264 C.2       1 <0>         0.1462
     25 C14        -1.2356   -2.0342    0.0942 C.ar      1 <0>         0.1312
     26 C15        -4.1476    2.4379    0.5224 C.2       1 <0>         0.0871
     27 C16        -1.9872    2.8781    0.6775 C.2       1 <0>         0.1512
     28 C17        -0.7319   -3.3345    0.1309 C.ar      1 <0>        -0.0174
     29 C18        -5.4618    1.7820    0.4276 C.3       1 <0>        -0.0069
     30 C19        -0.5652    2.6999    0.7817 C.2       1 <0>         0.2992
     31 C20        -5.9076    1.5194   -1.0245 C.3       1 <0>        -0.0504
     32 C21        -2.2712    5.3788    0.6745 C.3       1 <0>         0.0311
     33 C22        -3.3359   -2.8519   -0.6652 C.3       1 <0>         0.0894
     34 C23        -7.2490    0.8079   -1.1004 C.3       1 <0>        -0.0649
     35 C24        -4.7320   -2.2588   -0.7765 C.3       1 <0>        -0.0215
     36 C25        -5.7995   -3.3360   -0.8451 C.3       1 <0>        -0.0622
     37 H1          4.9219    0.2860   -1.4974 H         1 <0>         0.0463
     38 H2          4.1660    1.6825    0.2157 H         1 <0>         0.0281
     39 H3          5.3645    1.1150    1.3904 H         1 <0>         0.0281
     40 H4          6.7859    2.7672    0.8163 H         1 <0>         0.0278
     41 H5          5.6201    3.4024   -0.3554 H         1 <0>         0.0278
     42 H6          6.5697    2.2226   -2.1403 H         1 <0>         0.0426
     43 H7          8.0346    2.3304   -1.1361 H         1 <0>         0.0426
     44 H8          5.6532   -1.9413   -0.6188 H         1 <0>         0.0293
     45 H9          6.0245   -1.2272    0.9381 H         1 <0>         0.0293
     46 H10         3.2590   -1.3478   -0.3659 H         1 <0>         0.0442
     47 H11         3.6085   -0.5847    1.1998 H         1 <0>         0.0442
     48 H12         7.4366   -1.3161   -1.9286 H         1 <0>         0.0391
     49 H13         8.4496    0.0466   -2.3701 H         1 <0>         0.0391
     50 H14         6.7957   -0.0573   -3.0052 H         1 <0>         0.0391
     51 H15         4.0815   -3.4967    0.6001 H         1 <0>         0.1480
     52 H16         1.1409   -0.4818    1.9704 H         1 <0>         0.0645
     53 H17         0.8288   -4.6230    0.8305 H         1 <0>         0.0638
     54 H18        -1.2048   -4.1595   -0.3933 H         1 <0>         0.0655
     55 H19        -3.1032   -0.2167    0.6002 H         1 <0>         0.1674
     56 H20        -5.4363    0.8299    0.9727 H         1 <0>         0.0329
     57 H21        -6.2214    2.3951    0.9298 H         1 <0>         0.0329
     58 H22        -5.9732    2.4700   -1.5678 H         1 <0>         0.0266
     59 H23        -5.1510    0.9153   -1.5397 H         1 <0>         0.0266
     60 H24        -1.6052    5.5422   -0.1762 H         1 <0>         0.0473
     61 H25        -3.1232    6.0610    0.6132 H         1 <0>         0.0473
     62 H26        -1.7420    5.5318    1.6181 H         1 <0>         0.0473
     63 H27        -3.3102   -3.4794    0.2353 H         1 <0>         0.0696
     64 H28        -3.1173   -3.4659   -1.5466 H         1 <0>         0.0696
     65 H29        -7.2099   -0.1585   -0.5885 H         1 <0>         0.0230
     66 H30        -8.0367    1.4100   -0.6365 H         1 <0>         0.0230
     67 H31        -7.5261    0.6299   -2.1441 H         1 <0>         0.0230
     68 H32        -4.9251   -1.6040    0.0810 H         1 <0>         0.0295
     69 H33        -4.7896   -1.6200   -1.6655 H         1 <0>         0.0295
     70 H34        -5.7873   -3.9593    0.0548 H         1 <0>         0.0231
     71 H35        -6.7916   -2.8817   -0.9296 H         1 <0>         0.0231
     72 H36        -5.6477   -3.9839   -1.7143 H         1 <0>         0.0231
@<TRIPOS>BOND
     1    1    2 2
     2    1    3 2
     3    1    7 1
     4    1   19 1
     5    4   25 1
     6    4   33 1
     7    5   30 2
     8    6   12 1
     9    6   15 1
    10    6   18 1
    11    7   17 1
    12    7   51 1
    13    8   23 2
    14    8   24 1
    15    8   55 1
    16    9   10 1
    17    9   27 2
    18    9   32 1
    19   10   26 2
    20   11   24 2
    21   11   30 1
    22   12   13 1
    23   12   16 1
    24   12   37 1
    25   13   14 1
    26   13   38 1
    27   13   39 1
    28   14   15 1
    29   14   40 1
    30   14   41 1
    31   15   42 1
    32   15   43 1
    33   16   17 1
    34   16   44 1
    35   16   45 1
    36   17   46 1
    37   17   47 1
    38   18   48 1
    39   18   49 1
    40   18   50 1
    41   19   20 ar
    42   19   22 ar
    43   20   21 ar
    44   20   52 1
    45   21   24 1
    46   21   25 ar
    47   22   28 ar
    48   22   53 1
    49   23   26 1
    50   23   27 1
    51   25   28 ar
    52   26   29 1
    53   27   30 1
    54   28   54 1
    55   29   31 1
    56   29   56 1
    57   29   57 1
    58   31   34 1
    59   31   58 1
    60   31   59 1
    61   32   60 1
    62   32   61 1
    63   32   62 1
    64   33   35 1
    65   33   63 1
    66   33   64 1
    67   34   65 1
    68   34   66 1
    69   34   67 1
    70   35   36 1
    71   35   68 1
    72   35   69 1
    73   36   70 1
    74   36   71 1
    75   36   72 1
