@<TRIPOS>MOLECULE
DB06771
   48    51     0     0     0
SMALL
USER_CHARGES

@<TRIPOS>ATOM
      1 Cl1        -0.1641   -1.6487    0.6916 Cl        1 <0>        -0.0794
      2 F1         -1.1930    3.0789   -0.5803 F         1 <0>        -0.2035
      3 O1          3.8367    3.1551   -0.6976 O.2       1 <0>        -0.2863
      4 O2          6.2552    2.5332    0.0866 O.3       1 <0>        -0.4770
      5 O3          6.8400    0.4078   -0.5227 O.2       1 <0>        -0.2449
      6 N1          2.8527   -0.6565    0.3631 N.pl3     1 <0>        -0.3414
      7 N2         -1.9271    0.5540    0.1254 N.pl3     1 <0>        -0.3250
      8 N3         -4.0860   -1.4831   -2.1581 N.3       1 <0>        -0.3259
      9 C1          2.7015   -2.0785    0.7537 C.3       1 <0>         0.0347
     10 C2          3.7777   -3.0677    0.4598 C.3       1 <0>        -0.0302
     11 C3          2.4723   -3.1306   -0.2775 C.3       1 <0>        -0.0302
     12 C4          1.7993    0.2730    0.1294 C.ar      1 <0>         0.0735
     13 C5         -3.7482   -0.8686   -0.8655 C.3       1 <0>         0.0207
     14 C6         -2.5565    0.0719   -1.1119 C.3       1 <0>         0.0275
     15 C7          4.1653   -0.2483    0.2263 C.2       1 <0>         0.0232
     16 C8         -2.7319    1.2991    1.0969 C.3       1 <0>         0.0124
     17 C9         -4.9823   -0.1226   -0.3412 C.3       1 <0>        -0.0362
     18 C10        -0.5625    0.8674    0.0126 C.ar      1 <0>         0.0860
     19 C11        -3.6642    0.3575    1.8515 C.3       1 <0>        -0.0372
     20 C12        -5.0036    0.1091    1.1684 C.3       1 <0>        -0.0502
     21 C13         2.1112    1.5996   -0.2389 C.ar      1 <0>         0.0503
     22 C14         0.4436   -0.0733    0.2500 C.ar      1 <0>         0.0889
     23 C15         4.5690    0.9811   -0.1173 C.2       1 <0>         0.1220
     24 C16         3.5327    2.0122   -0.3792 C.2       1 <0>         0.2035
     25 C17        -0.2338    2.1707   -0.3494 C.ar      1 <0>         0.1465
     26 C18         1.1024    2.5413   -0.4765 C.ar      1 <0>        -0.0117
     27 C19         6.0066    1.2412   -0.2149 C.2       1 <0>         0.3420
     28 H1          2.2779   -2.1870    1.7475 H         1 <0>         0.0528
     29 H2          3.9690   -3.8351    1.2025 H         1 <0>         0.0286
     30 H3          4.6330   -2.8752   -0.1753 H         1 <0>         0.0286
     31 H4          2.4675   -2.8398   -1.3210 H         1 <0>         0.0286
     32 H5          1.8071   -3.9513   -0.0387 H         1 <0>         0.0286
     33 H6         -3.4714   -1.6750   -0.1772 H         1 <0>         0.0474
     34 H7         -1.8060   -0.4699   -1.7054 H         1 <0>         0.0479
     35 H8         -2.8606    0.9340   -1.7215 H         1 <0>         0.0479
     36 H9         -3.2837    2.1126    0.6113 H         1 <0>         0.0464
     37 H10        -2.0716    1.7626    1.8421 H         1 <0>         0.0464
     38 H11        -5.8958   -0.6796   -0.5913 H         1 <0>         0.0281
     39 H12        -5.0787    0.8429   -0.8559 H         1 <0>         0.0281
     40 H13         4.9231   -0.9748    0.4888 H         1 <0>         0.0819
     41 H14        -3.8752    0.7871    2.8390 H         1 <0>         0.0280
     42 H15        -3.1628   -0.6001    2.0411 H         1 <0>         0.0280
     43 H16        -5.4691   -0.7594    1.6521 H         1 <0>         0.0266
     44 H17        -5.6739    0.9540    1.3730 H         1 <0>         0.0266
     45 H18         1.3380    3.5630   -0.7603 H         1 <0>         0.0654
     46 H19        -3.2740   -1.9736   -2.5307 H         1 <0>         0.1185
     47 H20        -4.3168   -0.7577   -2.8363 H         1 <0>         0.1185
     48 H21         7.2110    2.7470    0.0321 H         1 <0>         0.2954
@<TRIPOS>BOND
     1    1   22 1
     2    2   25 1
     3    3   24 2
     4    4   27 1
     5    4   48 1
     6    5   27 2
     7    6    9 1
     8    6   12 1
     9    6   15 2
    10    7   14 1
    11    7   16 1
    12    7   18 1
    13    8   13 1
    14    8   46 1
    15    8   47 1
    16    9   10 1
    17    9   11 1
    18    9   28 1
    19   10   11 1
    20   10   29 1
    21   10   30 1
    22   11   31 1
    23   11   32 1
    24   12   21 ar
    25   12   22 ar
    26   13   14 1
    27   13   17 1
    28   13   33 1
    29   14   34 1
    30   14   35 1
    31   15   23 1
    32   15   40 1
    33   16   19 1
    34   16   36 1
    35   16   37 1
    36   17   20 1
    37   17   38 1
    38   17   39 1
    39   18   22 ar
    40   18   25 ar
    41   19   20 1
    42   19   41 1
    43   19   42 1
    44   20   43 1
    45   20   44 1
    46   21   24 1
    47   21   26 ar
    48   23   24 1
    49   23   27 1
    50   25   26 ar
    51   26   45 1
