@<TRIPOS>MOLECULE
DB06756
   19    18     0     0     0
SMALL
USER_CHARGES

@<TRIPOS>ATOM
      1 O1          2.4357    1.1927    0.0649 O.co2     1 <0>        -0.5444
      2 O2          2.9920   -1.0214   -0.0296 O.co2     1 <0>        -0.5444
      3 N1         -0.3359   -0.0137    0.0012 N.4       1 <0>         0.2410
      4 C1          0.8829   -0.4337    0.8099 C.3       1 <0>         0.0097
      5 C2         -0.2710   -0.6480   -1.3808 C.3       1 <0>        -0.0414
      6 C3         -1.5998   -0.4750    0.7123 C.3       1 <0>        -0.0414
      7 C4         -0.3558    1.5018   -0.1368 C.3       1 <0>        -0.0414
      8 C5          2.2334   -0.0425    0.2257 C.2       1 <0>         0.0864
      9 H1          0.7858    0.0172    1.8055 H         1 <0>         0.0879
     10 H2          0.8231   -1.5226    0.9338 H         1 <0>         0.0879
     11 H3         -0.2314   -1.7349   -1.2619 H         1 <0>         0.0778
     12 H4         -1.1709   -0.3587   -1.9322 H         1 <0>         0.0778
     13 H5          0.6187   -0.2860   -1.9036 H         1 <0>         0.0778
     14 H6         -1.6379    0.0047    1.6948 H         1 <0>         0.0778
     15 H7         -2.4655   -0.1825    0.1106 H         1 <0>         0.0778
     16 H8         -1.5616   -1.5633    0.8178 H         1 <0>         0.0778
     17 H9         -0.1690    1.9521    0.8424 H         1 <0>         0.0778
     18 H10         0.3769    1.8199   -0.8817 H         1 <0>         0.0778
     19 H11        -1.3498    1.7940   -0.4923 H         1 <0>         0.0778
@<TRIPOS>BOND
     1    1    8 2
     2    2    8 1
     3    3    4 1
     4    3    5 1
     5    3    6 1
     6    3    7 1
     7    4    8 1
     8    4    9 1
     9    4   10 1
    10    5   11 1
    11    5   12 1
    12    5   13 1
    13    6   14 1
    14    6   15 1
    15    6   16 1
    16    7   17 1
    17    7   18 1
    18    7   19 1
