@<TRIPOS>MOLECULE
DB06708
   67    70     0     0     0
SMALL
USER_CHARGES

@<TRIPOS>ATOM
      1 Cl1        -2.8639   -3.2922   -2.1790 Cl        1 <0>        -0.0835
      2 Cl2        -2.1702    5.8679    2.4775 Cl        1 <0>        -0.0835
      3 Cl3        -8.9269   -3.0887   -1.0253 Cl        1 <0>        -0.0835
      4 O1          1.2830   -0.2477   -2.1669 O.3       1 <0>        -0.3859
      5 N1          2.9337   -0.3298   -0.0205 N.3       1 <0>        -0.2996
      6 C1          1.4983   -0.2982    0.2510 C.3       1 <0>         0.0291
      7 C2          0.7039    0.2494   -0.9523 C.3       1 <0>         0.0934
      8 C3         -0.7341   -0.1358   -0.9036 C.ar      1 <0>        -0.0083
      9 C4         -1.7200    0.6486   -0.3256 C.ar      1 <0>        -0.0038
     10 C5          3.5030    1.0145    0.0750 C.3       1 <0>        -0.0010
     11 C6          3.6105   -1.2374    0.9059 C.3       1 <0>        -0.0010
     12 C7         -3.0681    0.2136   -0.3194 C.ar      1 <0>        -0.0078
     13 C8         -1.6220    1.9467    0.3341 C.ar      1 <0>        -0.0091
     14 C9         -3.8335    1.2767    0.3670 C.2       1 <0>        -0.0089
     15 C10        -2.9062    2.3566    0.7692 C.ar      1 <0>        -0.0082
     16 C11         4.8052    1.0969   -0.7196 C.3       1 <0>        -0.0405
     17 C12         3.3906   -2.6887    0.4825 C.3       1 <0>        -0.0405
     18 C13        -1.1061   -1.3565   -1.4747 C.ar      1 <0>        -0.0371
     19 C14        -3.4426   -0.9940   -0.8834 C.ar      1 <0>        -0.0350
     20 C15         5.4067    2.5010   -0.6507 C.3       1 <0>        -0.0548
     21 C16         4.1083   -3.6543    1.4262 C.3       1 <0>        -0.0548
     22 C17        -2.4458   -1.7807   -1.4646 C.ar      1 <0>         0.0419
     23 C18        -0.5158    2.7501    0.5635 C.ar      1 <0>        -0.0520
     24 C19        -3.0985    3.5578    1.4297 C.ar      1 <0>        -0.0351
     25 C20        -5.1528    1.2639    0.5891 C.2       1 <0>        -0.0463
     26 C21        -0.7037    3.9645    1.2303 C.ar      1 <0>        -0.0428
     27 C22        -1.9812    4.3637    1.6587 C.ar      1 <0>         0.0416
     28 C23         6.7215    2.5821   -1.4099 C.3       1 <0>        -0.0652
     29 C24         3.8653   -5.1026    1.0324 C.3       1 <0>        -0.0652
     30 C25        -6.0819    0.1929    0.1918 C.ar      1 <0>        -0.0244
     31 C26        -6.7229    0.2490   -1.0459 C.ar      1 <0>        -0.0532
     32 C27        -6.3209   -0.8780    1.0529 C.ar      1 <0>        -0.0532
     33 C28        -7.6029   -0.7655   -1.4222 C.ar      1 <0>        -0.0428
     34 C29        -7.2010   -1.8926    0.6767 C.ar      1 <0>        -0.0428
     35 C30        -7.8420   -1.8364   -0.5608 C.ar      1 <0>         0.0410
     36 H1          1.1278   -1.3114    0.4388 H         1 <0>         0.0455
     37 H2          1.2620    0.2659    1.1632 H         1 <0>         0.0455
     38 H3          0.8144    1.3195   -1.0902 H         1 <0>         0.0657
     39 H4          2.8273    1.7637   -0.3521 H         1 <0>         0.0426
     40 H5          3.6617    1.3085    1.1211 H         1 <0>         0.0426
     41 H6          4.6927   -1.0688    0.9157 H         1 <0>         0.0426
     42 H7          3.2688   -1.0786    1.9376 H         1 <0>         0.0426
     43 H8          4.6152    0.8361   -1.7688 H         1 <0>         0.0277
     44 H9          5.5477    0.3842   -0.3453 H         1 <0>         0.0277
     45 H10         3.7659   -2.8352   -0.5387 H         1 <0>         0.0277
     46 H11         2.3288   -2.9541    0.4702 H         1 <0>         0.0277
     47 H12        -0.3595   -2.0097   -1.9225 H         1 <0>         0.0636
     48 H13        -4.4559   -1.3613   -0.9032 H         1 <0>         0.0638
     49 H14         5.5796    2.7812    0.3950 H         1 <0>         0.0263
     50 H15         4.7030    3.2294   -1.0701 H         1 <0>         0.0263
     51 H16         3.7588   -3.4999    2.4538 H         1 <0>         0.0263
     52 H17         5.1861   -3.4544    1.4159 H         1 <0>         0.0263
     53 H18         0.5015    2.5031    0.3144 H         1 <0>         0.0624
     54 H19        -4.0857    3.8641    1.7600 H         1 <0>         0.0638
     55 H20         2.2232   -0.0005   -2.1695 H         1 <0>         0.2103
     56 H21        -5.6340    2.0928    1.1028 H         1 <0>         0.0630
     57 H22         0.1607    4.5963    1.4238 H         1 <0>         0.0632
     58 H23         7.4601    1.8912   -0.9911 H         1 <0>         0.0230
     59 H24         7.1319    3.5950   -1.3498 H         1 <0>         0.0230
     60 H25         6.5798    2.3351   -2.4669 H         1 <0>         0.0230
     61 H26         2.7986   -5.3460    1.0690 H         1 <0>         0.0230
     62 H27         4.3904   -5.7750    1.7180 H         1 <0>         0.0230
     63 H28         4.2285   -5.2996    0.0187 H         1 <0>         0.0230
     64 H29        -6.5462    1.0772   -1.7278 H         1 <0>         0.0624
     65 H30        -5.8285   -0.9356    2.0207 H         1 <0>         0.0624
     66 H31        -8.0949   -0.7090   -2.3897 H         1 <0>         0.0632
     67 H32        -7.3771   -2.7212    1.3578 H         1 <0>         0.0632
@<TRIPOS>BOND
     1    1   22 1
     2    2   27 1
     3    3   35 1
     4    4    7 1
     5    4   55 1
     6    5    6 1
     7    5   10 1
     8    5   11 1
     9    6    7 1
    10    6   36 1
    11    6   37 1
    12    7    8 1
    13    7   38 1
    14    8    9 ar
    15    8   18 ar
    16    9   12 ar
    17    9   13 1
    18   10   16 1
    19   10   39 1
    20   10   40 1
    21   11   17 1
    22   11   41 1
    23   11   42 1
    24   12   14 1
    25   12   19 ar
    26   13   15 ar
    27   13   23 ar
    28   14   15 1
    29   14   25 2
    30   15   24 ar
    31   16   20 1
    32   16   43 1
    33   16   44 1
    34   17   21 1
    35   17   45 1
    36   17   46 1
    37   18   22 ar
    38   18   47 1
    39   19   22 ar
    40   19   48 1
    41   20   28 1
    42   20   49 1
    43   20   50 1
    44   21   29 1
    45   21   51 1
    46   21   52 1
    47   23   26 ar
    48   23   53 1
    49   24   27 ar
    50   24   54 1
    51   25   30 1
    52   25   56 1
    53   26   27 ar
    54   26   57 1
    55   28   58 1
    56   28   59 1
    57   28   60 1
    58   29   61 1
    59   29   62 1
    60   29   63 1
    61   30   31 ar
    62   30   32 ar
    63   31   33 ar
    64   31   64 1
    65   32   34 ar
    66   32   65 1
    67   33   35 ar
    68   33   66 1
    69   34   35 ar
    70   34   67 1
