@<TRIPOS>MOLECULE
DB06151
   19    18     0     0     0
SMALL
USER_CHARGES

@<TRIPOS>ATOM
      1 S1         -1.7799   -1.2061    1.8295 S.3       1 <0>        -0.1759
      2 O1         -1.2088    2.0708    0.0671 O.3       1 <0>        -0.4793
      3 O2         -2.8007    0.9384   -1.0835 O.2       1 <0>        -0.2489
      4 O3          1.9042   -1.1308   -1.3910 O.2       1 <0>        -0.2761
      5 N1          0.5577    0.1675   -0.0045 N.am      1 <0>        -0.3020
      6 C1         -0.7179   -0.1926   -0.5713 C.3       1 <0>         0.1290
      7 C2         -1.3033   -1.4454    0.0855 C.3       1 <0>         0.0195
      8 C3         -1.6923    0.9735   -0.5629 C.2       1 <0>         0.3261
      9 C4          1.7643   -0.3352   -0.4658 C.2       1 <0>         0.2106
     10 C5          2.9427    0.2241    0.2855 C.3       1 <0>         0.0122
     11 H1         -0.5378   -0.4160   -1.6310 H         1 <0>         0.0623
     12 H2         -0.5823   -2.2689    0.0471 H         1 <0>         0.0397
     13 H3         -2.2014   -1.7662   -0.4531 H         1 <0>         0.0397
     14 H4          0.5633    0.8136    0.7798 H         1 <0>         0.1495
     15 H5          3.8467   -0.3307    0.0196 H         1 <0>         0.0322
     16 H6          3.0763    1.2771    0.0232 H         1 <0>         0.0322
     17 H7          2.7810    0.1343    1.3636 H         1 <0>         0.0322
     18 H8         -2.7618   -0.3203    1.6070 H         1 <0>         0.1017
     19 H9         -1.8501    2.8130    0.0554 H         1 <0>         0.2951
@<TRIPOS>BOND
     1    1    7 1
     2    1   18 1
     3    2    8 1
     4    2   19 1
     5    3    8 2
     6    4    9 2
     7    5    6 1
     8    5    9 am
     9    5   14 1
    10    6    7 1
    11    6    8 1
    12    6   11 1
    13    7   12 1
    14    7   13 1
    15    9   10 1
    16   10   15 1
    17   10   16 1
    18   10   17 1
