@<TRIPOS>MOLECULE
DB06797
   36    35     0     0     0
SMALL
USER_CHARGES

@<TRIPOS>ATOM
      1 O1         -0.8495   -1.9365   -0.2472 O.3       1 <0>        -0.4499
      2 O2         -2.1326    1.3048    0.0528 O.3       1 <0>        -0.4499
      3 O3         -1.9376   -3.5395    0.9963 O.2       1 <0>        -0.2267
      4 O4         -2.6364    2.4143   -1.9004 O.2       1 <0>        -0.2267
      5 N1         -1.5602   -3.8275   -1.2535 N.am      1 <0>        -0.2950
      6 N2         -4.1706    2.2360   -0.1971 N.am      1 <0>        -0.2950
      7 C1          0.0276    0.2002    0.5709 C.3       1 <0>         0.0389
      8 C2          1.4537   -0.0845   -0.0665 C.3       1 <0>        -0.0325
      9 C3         -0.7121   -1.1240    0.9108 C.3       1 <0>         0.1027
     10 C4         -0.8299    1.0148   -0.4437 C.3       1 <0>         0.1027
     11 C5          2.1812    1.2007   -0.5443 C.3       1 <0>        -0.0526
     12 C6          0.1368    1.0073    1.8828 C.3       1 <0>        -0.0531
     13 C7          2.3814   -0.8902    0.8617 C.3       1 <0>        -0.0617
     14 C8          3.5272    0.9385   -1.2123 C.3       1 <0>        -0.0650
     15 C9         -1.4883   -3.1344   -0.0706 C.2       1 <0>         0.3977
     16 C10        -2.9475    2.0188   -0.7820 C.2       1 <0>         0.3977
     17 H1          1.2910   -0.7025   -0.9608 H         1 <0>         0.0305
     18 H2         -0.1799   -1.6821    1.6892 H         1 <0>         0.0705
     19 H3         -1.7127   -0.9033    1.3047 H         1 <0>         0.0705
     20 H4         -0.3558    1.9800   -0.6471 H         1 <0>         0.0705
     21 H5         -0.9176    0.4645   -1.3888 H         1 <0>         0.0705
     22 H6          1.5716    1.7226   -1.2873 H         1 <0>         0.0265
     23 H7          2.3373    1.8902    0.2920 H         1 <0>         0.0265
     24 H8         -0.8498    1.1785    2.3287 H         1 <0>         0.0237
     25 H9          0.5889    1.9900    1.7172 H         1 <0>         0.0237
     26 H10         0.7360    0.4813    2.6327 H         1 <0>         0.0237
     27 H11         2.7180   -0.2917    1.7138 H         1 <0>         0.0233
     28 H12         3.2707   -1.2366    0.3251 H         1 <0>         0.0233
     29 H13         1.8981   -1.7924    1.2441 H         1 <0>         0.0233
     30 H14         3.4363    0.1877   -2.0033 H         1 <0>         0.0230
     31 H15         4.2782    0.6028   -0.4914 H         1 <0>         0.0230
     32 H16         3.9043    1.8617   -1.6650 H         1 <0>         0.0230
     33 H17        -1.1727   -3.4496   -2.1115 H         1 <0>         0.1482
     34 H18        -2.0028   -4.7388   -1.3060 H         1 <0>         0.1482
     35 H19        -4.3808    1.8880    0.7323 H         1 <0>         0.1482
     36 H20        -4.9015    2.7510   -0.6763 H         1 <0>         0.1482
@<TRIPOS>BOND
     1    1    9 1
     2    1   15 1
     3    2   10 1
     4    2   16 1
     5    3   15 2
     6    4   16 2
     7    5   15 am
     8    5   33 1
     9    5   34 1
    10    6   16 am
    11    6   35 1
    12    6   36 1
    13    7    8 1
    14    7    9 1
    15    7   10 1
    16    7   12 1
    17    8   11 1
    18    8   13 1
    19    8   17 1
    20    9   18 1
    21    9   19 1
    22   10   20 1
    23   10   21 1
    24   11   14 1
    25   11   22 1
    26   11   23 1
    27   12   24 1
    28   12   25 1
    29   12   26 1
    30   13   27 1
    31   13   28 1
    32   13   29 1
    33   14   30 1
    34   14   31 1
    35   14   32 1
