@<TRIPOS>MOLECULE
DB06282
   52    54     0     0     0
SMALL
USER_CHARGES

@<TRIPOS>ATOM
      1 Cl1         5.2058   -4.9269    0.1483 Cl        1 <0>        -0.0835
      2 O1         -4.8588    0.1940    0.2470 O.3       1 <0>        -0.3688
      3 O2         -6.4499    1.6552    1.9893 O.co2     1 <0>        -0.5474
      4 O3         -5.9719   -0.1278    3.3404 O.co2     1 <0>        -0.5474
      5 N1         -2.2232    0.1858   -0.8656 N.4       1 <0>         0.2387
      6 N2          0.5941   -0.0529   -0.3174 N.3       1 <0>        -0.2815
      7 C1         -1.2459    1.2217   -1.3614 C.3       1 <0>        -0.0187
      8 C2         -1.5684   -1.1671   -0.7439 C.3       1 <0>        -0.0187
      9 C3         -0.0446    1.2656   -0.4227 C.3       1 <0>         0.0401
     10 C4         -0.3582   -1.0559    0.1776 C.3       1 <0>         0.0401
     11 C5         -3.4665    0.1362   -1.7073 C.3       1 <0>        -0.0078
     12 C6          1.7683    0.0131    0.5518 C.3       1 <0>         0.0613
     13 C7         -4.5708   -0.5511   -0.9286 C.3       1 <0>         0.0880
     14 C8          2.6356   -1.2329    0.4499 C.ar      1 <0>        -0.0258
     15 C9          2.5765    1.2847    0.3392 C.ar      1 <0>        -0.0259
     16 C10         3.3799   -1.6562    1.5511 C.ar      1 <0>        -0.0554
     17 C11         2.6864   -1.9519   -0.7443 C.ar      1 <0>        -0.0554
     18 C12         3.6040    1.3082   -0.6039 C.ar      1 <0>        -0.0568
     19 C13         2.2899    2.4266    1.0869 C.ar      1 <0>        -0.0568
     20 C14         4.1750   -2.7985    1.4582 C.ar      1 <0>        -0.0431
     21 C15         3.4815   -3.0942   -0.8372 C.ar      1 <0>        -0.0431
     22 C16         4.3450    2.4738   -0.7991 C.ar      1 <0>        -0.0614
     23 C17         3.0307    3.5922    0.8918 C.ar      1 <0>        -0.0614
     24 C18        -5.8977   -0.4100    1.0059 C.3       1 <0>         0.0871
     25 C19         4.2258   -3.5174    0.2639 C.ar      1 <0>         0.0410
     26 C20         4.0585    3.6158   -0.0512 C.ar      1 <0>        -0.0617
     27 C21        -6.1266    0.4583    2.2325 C.2       1 <0>         0.0673
     28 H1         -2.5096    0.4792    0.0789 H         1 <0>         0.2035
     29 H2         -1.7634    2.1868   -1.3678 H         1 <0>         0.0827
     30 H3         -0.9613    0.9499   -2.3847 H         1 <0>         0.0827
     31 H4         -1.2873   -1.4988   -1.7500 H         1 <0>         0.0827
     32 H5         -2.2870   -1.8678   -0.3128 H         1 <0>         0.0827
     33 H6          0.6138    2.0089   -0.8824 H         1 <0>         0.0479
     34 H7         -0.3733    1.6337    0.5580 H         1 <0>         0.0479
     35 H8         -0.6981   -0.8038    1.1917 H         1 <0>         0.0479
     36 H9          0.0954   -2.0510    0.2345 H         1 <0>         0.0479
     37 H10        -3.7510    1.1734   -1.9158 H         1 <0>         0.0837
     38 H11        -3.2310   -0.3769   -2.6453 H         1 <0>         0.0837
     39 H12         1.4160    0.0505    1.5953 H         1 <0>         0.0562
     40 H13        -5.4704   -0.5775   -1.5558 H         1 <0>         0.0613
     41 H14        -4.3224   -1.5853   -0.6729 H         1 <0>         0.0613
     42 H15         3.3502   -1.1047    2.4870 H         1 <0>         0.0621
     43 H16         2.1335   -1.6412   -1.6264 H         1 <0>         0.0621
     44 H17         3.8470    0.4517   -1.2231 H         1 <0>         0.0621
     45 H18         1.5031    2.4235    1.8365 H         1 <0>         0.0621
     46 H19         4.7498   -3.1164    2.3241 H         1 <0>         0.0632
     47 H20         3.5143   -3.6425   -1.7752 H         1 <0>         0.0632
     48 H21         5.1419    2.4942   -1.5368 H         1 <0>         0.0618
     49 H22         2.8096    4.4806    1.4761 H         1 <0>         0.0618
     50 H23        -6.8220   -0.4537    0.4191 H         1 <0>         0.0622
     51 H24        -5.6068   -1.4249    1.2998 H         1 <0>         0.0622
     52 H25         4.6350    4.5236   -0.2034 H         1 <0>         0.0618
@<TRIPOS>BOND
     1    1   25 1
     2    2   13 1
     3    2   24 1
     4    3   27 2
     5    4   27 1
     6    5    7 1
     7    5    8 1
     8    5   11 1
     9    5   28 1
    10    6    9 1
    11    6   10 1
    12    6   12 1
    13    7    9 1
    14    7   29 1
    15    7   30 1
    16    8   10 1
    17    8   31 1
    18    8   32 1
    19    9   33 1
    20    9   34 1
    21   10   35 1
    22   10   36 1
    23   11   13 1
    24   11   37 1
    25   11   38 1
    26   12   14 1
    27   12   15 1
    28   12   39 1
    29   13   40 1
    30   13   41 1
    31   14   16 ar
    32   14   17 ar
    33   15   18 ar
    34   15   19 ar
    35   16   20 ar
    36   16   42 1
    37   17   21 ar
    38   17   43 1
    39   18   22 ar
    40   18   44 1
    41   19   23 ar
    42   19   45 1
    43   20   25 ar
    44   20   46 1
    45   21   25 ar
    46   21   47 1
    47   22   26 ar
    48   22   48 1
    49   23   26 ar
    50   23   49 1
    51   24   27 1
    52   24   50 1
    53   24   51 1
    54   26   52 1
