@<TRIPOS>MOLECULE
DB06154
   29    28     0     0     0
SMALL
USER_CHARGES

@<TRIPOS>ATOM
      1 O1         -2.3021   -0.8794   -0.1432 O.3       1 <0>        -0.2156
      2 O2         -0.8527    2.2900    0.1614 O.3       1 <0>        -0.2156
      3 O3          2.3061    0.8340   -0.1570 O.3       1 <0>        -0.2156
      4 O4          0.8426   -2.3085    0.1387 O.3       1 <0>        -0.2156
      5 O5         -3.2101   -1.1174   -2.1483 O.3       1 <0>        -0.5338
      6 O6         -1.1760    3.1579    2.1719 O.3       1 <0>        -0.5338
      7 O7          3.1891    1.1989   -2.1532 O.3       1 <0>        -0.5338
      8 O8          1.1995   -3.1763    2.1445 O.3       1 <0>        -0.5338
      9 O9         -4.4188   -1.6800   -0.3610 O.2       1 <0>         0.0934
     10 O10        -1.6505    4.4071    0.3869 O.2       1 <0>         0.0934
     11 O11         4.4356    1.6070   -0.3502 O.2       1 <0>         0.0934
     12 O12         1.6123   -4.4371    0.3525 O.2       1 <0>         0.0934
     13 N1         -3.4146   -1.2626   -0.9424 N.pl3     1 <0>         0.2843
     14 N2         -1.2651    3.3885    0.9654 N.pl3     1 <0>         0.2843
     15 N3          3.4145    1.2524   -0.9436 N.pl3     1 <0>         0.2843
     16 N4          1.2566   -3.4112    0.9369 N.pl3     1 <0>         0.2843
     17 C1          0.0095    0.0014   -0.0122 C.3       1 <0>         0.1337
     18 C2         -1.1933   -0.4116   -0.9002 C.3       1 <0>         0.1826
     19 C3         -0.4264    1.1627    0.9162 C.3       1 <0>         0.1826
     20 C4          1.1769    0.4441   -0.9295 C.3       1 <0>         0.1826
     21 C5          0.4517   -1.1727    0.8978 C.3       1 <0>         0.1826
     22 H1         -1.4977    0.4506   -1.5087 H         1 <0>         0.0779
     23 H2         -0.8605   -1.2080   -1.5800 H         1 <0>         0.0779
     24 H3         -1.2470    0.8187    1.5605 H         1 <0>         0.0779
     25 H4          0.4210    1.4465    1.5549 H         1 <0>         0.0779
     26 H5          0.8443    1.2845   -1.5534 H         1 <0>         0.0779
     27 H6          1.4496   -0.3928   -1.5864 H         1 <0>         0.0779
     28 H7          1.2903   -0.8420    1.5254 H         1 <0>         0.0779
     29 H8         -0.3845   -1.4446    1.5563 H         1 <0>         0.0779
@<TRIPOS>BOND
     1    1   13 1
     2    1   18 1
     3    2   14 1
     4    2   19 1
     5    3   15 1
     6    3   20 1
     7    4   16 1
     8    4   21 1
     9    5   13 1
    10    6   14 1
    11    7   15 1
    12    8   16 1
    13    9   13 2
    14   10   14 2
    15   11   15 2
    16   12   16 2
    17   17   18 1
    18   17   19 1
    19   17   20 1
    20   17   21 1
    21   18   22 1
    22   18   23 1
    23   19   24 1
    24   19   25 1
    25   20   26 1
    26   20   27 1
    27   21   28 1
    28   21   29 1
