@<TRIPOS>MOLECULE
DB06401
   69    73     0     0     0
SMALL
USER_CHARGES

@<TRIPOS>ATOM
      1 O1          1.8628   -2.2159    0.8158 O.3       1 <0>        -0.4907
      2 O2         -7.5832   -3.7058   -1.4918 O.3       1 <0>        -0.5067
      3 O3         -1.2474    5.6859    0.3218 O.3       1 <0>        -0.5068
      4 N1          5.1151   -0.9119   -0.3326 N.3       1 <0>        -0.2991
      5 N2         -4.1014   -0.0796    0.6663 N.pl3     1 <0>        -0.3352
      6 C1          5.7547   -0.7216    0.9736 C.3       1 <0>        -0.0010
      7 C2          6.0314   -1.3221   -1.3979 C.3       1 <0>        -0.0010
      8 C3          7.1021    0.0063    0.9968 C.3       1 <0>        -0.0402
      9 C4          6.5867   -0.0982   -2.1320 C.3       1 <0>        -0.0402
     10 C5          7.2140    1.1734    0.0211 C.3       1 <0>        -0.0519
     11 C6          7.6313    0.7160   -1.3744 C.3       1 <0>        -0.0519
     12 C7          3.9935   -1.8443   -0.2059 C.3       1 <0>         0.0331
     13 C8          2.9375   -1.2887    0.7363 C.3       1 <0>         0.1022
     14 C9         -4.1751    0.9506   -0.2171 C.cat     1 <0>         0.0533
     15 C10        -4.9184   -1.1117    0.2972 C.ar      1 <0>         0.0503
     16 C11        -5.0676    0.5859   -1.1987 C.2       1 <0>        -0.0172
     17 C12        -5.5461   -0.7173   -0.8864 C.ar      1 <0>         0.0068
     18 C13        -3.2579   -0.0930    1.8660 C.3       1 <0>         0.0489
     19 C14        -1.9044   -0.6539    1.5881 C.ar      1 <0>        -0.0275
     20 C15        -3.4173    2.1762   -0.0774 C.ar      1 <0>        -0.0010
     21 C16        -5.1560   -2.3514    0.9013 C.ar      1 <0>        -0.0341
     22 C17        -6.4559   -1.6020   -1.4989 C.ar      1 <0>        -0.0107
     23 C18        -5.4634    1.3970   -2.3706 C.3       1 <0>        -0.0371
     24 C19         0.6193   -1.7000    1.0716 C.ar      1 <0>         0.1206
     25 C20        -1.7738   -1.8192    0.8326 C.ar      1 <0>        -0.0534
     26 C21        -0.7690   -0.0135    2.0846 C.ar      1 <0>        -0.0534
     27 C22        -6.7034   -2.8454   -0.9059 C.ar      1 <0>         0.1176
     28 C23        -6.0624   -3.2123    0.2757 C.ar      1 <0>        -0.0182
     29 C24        -0.5076   -2.3440    0.5737 C.ar      1 <0>        -0.0196
     30 C25         0.4971   -0.5384    1.8254 C.ar      1 <0>        -0.0196
     31 C26        -3.9572    3.2470    0.6297 C.ar      1 <0>        -0.0492
     32 C27        -2.1529    2.2773   -0.6513 C.ar      1 <0>        -0.0492
     33 C28        -3.2271    4.4279    0.7640 C.ar      1 <0>        -0.0196
     34 C29        -1.4226    3.4583   -0.5169 C.ar      1 <0>        -0.0196
     35 C30        -1.9598    4.5335    0.1907 C.ar      1 <0>         0.1169
     36 H1          5.8913   -1.6815    1.4894 H         1 <0>         0.0427
     37 H2          5.0926   -0.1113    1.5987 H         1 <0>         0.0427
     38 H3          5.4920   -1.9055   -2.1559 H         1 <0>         0.0427
     39 H4          6.8322   -1.9762   -1.0318 H         1 <0>         0.0427
     40 H5          7.9132   -0.7101    0.8160 H         1 <0>         0.0278
     41 H6          7.2587    0.3858    2.0149 H         1 <0>         0.0278
     42 H7          7.0409   -0.4368   -3.0720 H         1 <0>         0.0278
     43 H8          5.7574    0.5609   -2.4214 H         1 <0>         0.0278
     44 H9          7.9909    1.8537    0.3917 H         1 <0>         0.0266
     45 H10         6.2831    1.7507   -0.0164 H         1 <0>         0.0266
     46 H11         7.8739    1.6023   -1.9737 H         1 <0>         0.0266
     47 H12         8.5588    0.1337   -1.3050 H         1 <0>         0.0266
     48 H13         3.5137   -1.9999   -1.1814 H         1 <0>         0.0460
     49 H14         4.3230   -2.8368    0.1292 H         1 <0>         0.0460
     50 H15         3.3202   -1.1671    1.7539 H         1 <0>         0.0709
     51 H16         2.6074   -0.3166    0.3456 H         1 <0>         0.0709
     52 H17        -3.2094    0.9293    2.2558 H         1 <0>         0.0541
     53 H18        -3.7638   -0.6859    2.6363 H         1 <0>         0.0541
     54 H19        -4.6709   -2.6493    1.8245 H         1 <0>         0.0639
     55 H20        -6.9635   -1.3276   -2.4196 H         1 <0>         0.0661
     56 H21        -5.9615    0.7939   -3.1359 H         1 <0>         0.0278
     57 H22        -6.1521    2.1922   -2.0671 H         1 <0>         0.0278
     58 H23        -4.5902    1.8603   -2.8418 H         1 <0>         0.0278
     59 H24        -2.6130   -2.3651    0.4275 H         1 <0>         0.0622
     60 H25        -0.8572    0.8917    2.6796 H         1 <0>         0.0622
     61 H26        -6.2616   -4.1798    0.7310 H         1 <0>         0.0655
     62 H27        -0.4093   -3.2523   -0.0139 H         1 <0>         0.0654
     63 H28         1.3520   -0.0245    2.2538 H         1 <0>         0.0654
     64 H29        -4.9435    3.1796    1.0823 H         1 <0>         0.0625
     65 H30        -1.7208    1.4480   -1.2059 H         1 <0>         0.0625
     66 H31        -3.6567    5.2583    1.3179 H         1 <0>         0.0654
     67 H32        -0.4358    3.5341   -0.9652 H         1 <0>         0.0654
     68 H33        -7.6379   -4.5153   -0.9557 H         1 <0>         0.2921
     69 H34        -1.7698    6.3219    0.8402 H         1 <0>         0.2921
@<TRIPOS>BOND
     1    1   13 1
     2    1   24 1
     3    2   27 1
     4    2   68 1
     5    3   35 1
     6    3   69 1
     7    4    6 1
     8    4    7 1
     9    4   12 1
    10    5   14 1
    11    5   15 2
    12    5   18 1
    13    6    8 1
    14    6   36 1
    15    6   37 1
    16    7    9 1
    17    7   38 1
    18    7   39 1
    19    8   10 1
    20    8   40 1
    21    8   41 1
    22    9   11 1
    23    9   42 1
    24    9   43 1
    25   10   11 1
    26   10   44 1
    27   10   45 1
    28   11   46 1
    29   11   47 1
    30   12   13 1
    31   12   48 1
    32   12   49 1
    33   13   50 1
    34   13   51 1
    35   14   16 1
    36   14   20 1
    37   15   17 ar
    38   15   21 ar
    39   16   17 2
    40   16   23 1
    41   17   22 ar
    42   18   19 1
    43   18   52 1
    44   18   53 1
    45   19   25 ar
    46   19   26 ar
    47   20   31 ar
    48   20   32 ar
    49   21   28 ar
    50   21   54 1
    51   22   27 ar
    52   22   55 1
    53   23   56 1
    54   23   57 1
    55   23   58 1
    56   24   29 ar
    57   24   30 ar
    58   25   29 ar
    59   25   59 1
    60   26   30 ar
    61   26   60 1
    62   27   28 ar
    63   28   61 1
    64   29   62 1
    65   30   63 1
    66   31   33 ar
    67   31   64 1
    68   32   34 ar
    69   32   65 1
    70   33   35 ar
    71   33   66 1
    72   34   35 ar
    73   34   67 1
