@<TRIPOS>MOLECULE
DB06176
   72    73     0     0     0
SMALL
USER_CHARGES

@<TRIPOS>ATOM
      1 S1         -0.5274    1.3414   -2.7101 S.3       1 <0>        -0.0908
      2 S2         -1.7091    1.2838   -4.3858 S.3       1 <0>        -0.0928
      3 O1          0.9452   -2.0702   -1.1429 O.3       1 <0>        -0.4554
      4 O2         -3.3963    1.9074    0.3233 O.2       1 <0>        -0.2738
      5 O3          0.0267   -1.2028    1.3545 O.2       1 <0>        -0.2757
      6 O4          2.1613   -3.9743   -0.7150 O.2       1 <0>        -0.2487
      7 O5          1.1373    4.3527   -0.1420 O.2       1 <0>        -0.2734
      8 O6          4.7186    0.5798   -1.0982 O.2       1 <0>        -0.2688
      9 N1         -2.2502   -1.0206    0.9693 N.am      1 <0>        -0.3036
     10 N2         -1.0841    1.7192    0.4634 N.am      1 <0>        -0.3017
     11 N3          2.7847   -0.4391   -0.3409 N.am      1 <0>        -0.2971
     12 N4          1.5627    2.0627   -0.3726 N.am      1 <0>        -0.2801
     13 C1         -2.4601    0.1915    1.7474 C.3       1 <0>         0.1017
     14 C2         -3.7996    0.1335    2.4695 C.3       1 <0>        -0.0197
     15 C3          3.2370   -1.8155   -0.5125 C.3       1 <0>         0.1230
     16 C4          4.0101   -2.2680    0.7212 C.3       1 <0>        -0.0178
     17 C5         -2.3908    1.3653    0.7769 C.2       1 <0>         0.2342
     18 C6         -3.8560   -1.0708    3.4089 C.3       1 <0>        -0.0605
     19 C7         -4.0533    1.4267    3.2439 C.3       1 <0>        -0.0605
     20 C8         -0.2870   -2.8092   -1.3227 C.3       1 <0>         0.1295
     21 C9         -1.0302   -2.9024    0.0209 C.3       1 <0>         0.0647
     22 C10        -0.7423    2.8812   -0.3490 C.3       1 <0>         0.1095
     23 C11        -1.0106   -1.6218    0.8420 C.2       1 <0>         0.2175
     24 C12         2.0657   -2.7535   -0.7764 C.2       1 <0>         0.3285
     25 C13         5.2075   -1.3531    0.9730 C.3       1 <0>        -0.0605
     26 C14         3.0976   -2.3044    1.9462 C.3       1 <0>        -0.0605
     27 C15        -1.2019    2.7809   -1.8130 C.3       1 <0>         0.0309
     28 C16        -1.0029   -2.2065   -2.5041 C.2       1 <0>        -0.0474
     29 C17         0.7556    3.1864   -0.2272 C.2       1 <0>         0.2385
     30 C18         3.5799    0.6552   -0.6403 C.2       1 <0>         0.2586
     31 C19         2.9402    1.9840   -0.3420 C.2       1 <0>         0.0917
     32 C20        -2.2446   -1.7029   -2.5585 C.2       1 <0>        -0.0837
     33 C21        -2.8859   -1.2049   -3.8241 C.3       1 <0>        -0.0248
     34 C22        -3.1529    0.3020   -3.8441 C.3       1 <0>         0.0074
     35 C23         3.7825    2.9936   -0.0788 C.2       1 <0>        -0.0608
     36 C24         3.3433    4.3813    0.2388 C.3       1 <0>        -0.0446
     37 H1         -1.6479    0.2933    2.4787 H         1 <0>         0.0597
     38 H2         -4.6130    0.0176    1.7401 H         1 <0>         0.0318
     39 H3          3.8796   -1.8499   -1.4008 H         1 <0>         0.0617
     40 H4          4.3903   -3.2840    0.5531 H         1 <0>         0.0319
     41 H5         -3.0473   -1.4096    0.4754 H         1 <0>         0.1495
     42 H6         -3.0465   -1.0381    4.1464 H         1 <0>         0.0233
     43 H7         -4.8053   -1.0902    3.9554 H         1 <0>         0.0233
     44 H8         -3.7804   -2.0161    2.8618 H         1 <0>         0.0233
     45 H9         -3.2415    1.6283    3.9519 H         1 <0>         0.0233
     46 H10        -4.9817    1.3496    3.8212 H         1 <0>         0.0233
     47 H11        -4.1601    2.2999    2.5960 H         1 <0>         0.0233
     48 H12        -0.0507   -3.8362   -1.6330 H         1 <0>         0.0784
     49 H13        -0.5212   -3.6470    0.6486 H         1 <0>         0.0398
     50 H14        -2.0514   -3.2755   -0.1132 H         1 <0>         0.0398
     51 H15        -1.2700    3.7284    0.1091 H         1 <0>         0.0603
     52 H16        -0.3262    1.1973    0.8937 H         1 <0>         0.1495
     53 H17         5.8428   -1.2678    0.0865 H         1 <0>         0.0233
     54 H18         4.9259   -0.3613    1.3371 H         1 <0>         0.0233
     55 H19         5.8351   -1.7914    1.7590 H         1 <0>         0.0233
     56 H20         3.6613   -2.6476    2.8215 H         1 <0>         0.0233
     57 H21         2.2588   -2.9955    1.8219 H         1 <0>         0.0233
     58 H22         2.6967   -1.3156    2.1923 H         1 <0>         0.0233
     59 H23         1.8800   -0.3045    0.0980 H         1 <0>         0.1499
     60 H24        -2.2946    2.7293   -1.8467 H         1 <0>         0.0407
     61 H25        -0.8928    3.6826   -2.3534 H         1 <0>         0.0407
     62 H26        -0.4274   -2.2237   -3.4295 H         1 <0>         0.0605
     63 H27         1.0805    1.1974   -0.5973 H         1 <0>         0.1550
     64 H28        -2.8687   -1.6775   -1.6734 H         1 <0>         0.0570
     65 H29        -2.3163   -1.5114   -4.7105 H         1 <0>         0.0315
     66 H30        -3.8524   -1.7200   -3.9037 H         1 <0>         0.0315
     67 H31        -3.9381    0.4998   -4.5821 H         1 <0>         0.0387
     68 H32        -3.5258    0.6704   -2.8820 H         1 <0>         0.0387
     69 H33         4.8579    2.8307   -0.0808 H         1 <0>         0.0589
     70 H34         4.2640    4.9054    0.5457 H         1 <0>         0.0272
     71 H35         2.7555    4.4625    1.1585 H         1 <0>         0.0272
     72 H36         3.0602    4.9615   -0.6446 H         1 <0>         0.0272
@<TRIPOS>BOND
     1    1    2 1
     2    1   27 1
     3    2   34 1
     4    3   20 1
     5    3   24 1
     6    4   17 2
     7    5   23 2
     8    6   24 2
     9    7   29 2
    10    8   30 2
    11    9   13 1
    12    9   23 am
    13    9   41 1
    14   10   17 am
    15   10   22 1
    16   10   52 1
    17   11   15 1
    18   11   30 am
    19   11   59 1
    20   12   29 am
    21   12   31 1
    22   12   63 1
    23   13   14 1
    24   13   17 1
    25   13   37 1
    26   14   18 1
    27   14   19 1
    28   14   38 1
    29   15   16 1
    30   15   24 1
    31   15   39 1
    32   16   25 1
    33   16   26 1
    34   16   40 1
    35   18   42 1
    36   18   43 1
    37   18   44 1
    38   19   45 1
    39   19   46 1
    40   19   47 1
    41   20   21 1
    42   20   28 1
    43   20   48 1
    44   21   23 1
    45   21   49 1
    46   21   50 1
    47   22   27 1
    48   22   29 1
    49   22   51 1
    50   25   53 1
    51   25   54 1
    52   25   55 1
    53   26   56 1
    54   26   57 1
    55   26   58 1
    56   27   60 1
    57   27   61 1
    58   28   32 2
    59   28   62 1
    60   30   31 1
    61   31   35 2
    62   32   33 1
    63   32   64 1
    64   33   34 1
    65   33   65 1
    66   33   66 1
    67   34   67 1
    68   34   68 1
    69   35   36 1
    70   35   69 1
    71   36   70 1
    72   36   71 1
    73   36   72 1
