@<TRIPOS>MOLECULE
DB06725
   33    35     0     0     0
SMALL
USER_CHARGES

@<TRIPOS>ATOM
      1 Cl1        -6.8446   -2.4376    0.3185 Cl        1 <0>        -0.0758
      2 S1         -2.8862    1.4326    0.4898 S.o2      1 <0>         0.0760
      3 S2         -3.9564   -2.5008   -0.3674 S.3       1 <0>        -0.0716
      4 O1         -3.7521    2.3874   -0.1722 O.2       1 <0>        -0.1497
      5 O2         -2.6520    1.4678    1.9190 O.2       1 <0>        -0.1497
      6 O3         -1.0391   -2.3879   -0.7772 O.3       1 <0>        -0.5036
      7 O4          1.0175    0.0458   -2.0189 O.2       1 <0>        -0.2683
      8 N1         -1.3985    1.3184   -0.3485 N.pl3     1 <0>        -0.1975
      9 N2          1.4067   -0.1991    0.2907 N.am      1 <0>        -0.2652
     10 N3          3.3814   -0.4400    1.5955 N.ar      1 <0>        -0.2401
     11 C1         -3.6734   -0.0606    0.2495 C.2       1 <0>         0.1279
     12 C2         -0.7985    0.0106   -0.5509 C.2       1 <0>         0.1552
     13 C3         -2.9335   -1.1212   -0.2137 C.2       1 <0>         0.0836
     14 C4         -1.5374   -1.1239   -0.5211 C.2       1 <0>         0.1601
     15 C5         -5.0378   -0.3347    0.4940 C.2       1 <0>        -0.0088
     16 C6         -0.5697    2.5483   -0.3726 C.3       1 <0>         0.0239
     17 C7          0.6426   -0.0442   -0.8547 C.2       1 <0>         0.2685
     18 C8         -5.3302   -1.6450    0.1927 C.2       1 <0>         0.0806
     19 C9          2.8175   -0.2898    0.3760 C.ar      1 <0>         0.1251
     20 C10         3.5351   -0.2181   -0.8070 C.ar      1 <0>        -0.0215
     21 C11         4.9208   -0.3067   -0.7339 C.ar      1 <0>        -0.0571
     22 C12         4.7305   -0.5222    1.6271 C.ar      1 <0>         0.0297
     23 C13         5.5376   -0.4618    0.5026 C.ar      1 <0>        -0.0435
     24 H1         -5.7642    0.3773    0.8646 H         1 <0>         0.0657
     25 H2         -1.1962    3.4426   -0.3010 H         1 <0>         0.0446
     26 H3         -0.0230    2.6178   -1.3179 H         1 <0>         0.0446
     27 H4          0.1364    2.5489    0.4627 H         1 <0>         0.0446
     28 H5          0.9306   -0.2560    1.1882 H         1 <0>         0.1566
     29 H6         -0.0909   -2.3188   -0.9773 H         1 <0>         0.2923
     30 H7          3.1275   -0.0989   -1.7974 H         1 <0>         0.0652
     31 H8          5.5205   -0.2549   -1.6378 H         1 <0>         0.0619
     32 H9          5.1625   -0.6424    2.6151 H         1 <0>         0.0830
     33 H10         6.6163   -0.5329    0.5836 H         1 <0>         0.0633
@<TRIPOS>BOND
     1    1   18 1
     2    2    4 2
     3    2    5 2
     4    2    8 1
     5    2   11 1
     6    3   13 1
     7    3   18 1
     8    6   14 1
     9    6   29 1
    10    7   17 2
    11    8   12 1
    12    8   16 1
    13    9   17 am
    14    9   19 1
    15    9   28 1
    16   10   19 ar
    17   10   22 ar
    18   11   13 2
    19   11   15 1
    20   12   14 2
    21   12   17 1
    22   13   14 1
    23   15   18 2
    24   15   24 1
    25   16   25 1
    26   16   26 1
    27   16   27 1
    28   19   20 ar
    29   20   21 ar
    30   20   30 1
    31   21   23 ar
    32   21   31 1
    33   22   23 ar
    34   22   32 1
    35   23   33 1
