@<TRIPOS>MOLECULE
DB06698
   22    22     0     0     0
SMALL
USER_CHARGES

@<TRIPOS>ATOM
      1 N1          2.7437    0.0631    0.4555 N.3       1 <0>        -0.3186
      2 N2         -1.5675   -1.3001    0.3109 N.ar      1 <0>        -0.2598
      3 C1          0.3373    0.0024    1.0434 C.3       1 <0>         0.0021
      4 C2          1.3864    0.0236   -0.0785 C.3       1 <0>         0.0010
      5 C3         -1.0530   -0.0653    0.5056 C.ar      1 <0>         0.0425
      6 C4         -1.7354    1.1105    0.2374 C.ar      1 <0>        -0.0403
      7 C5          3.7247    0.0369   -0.6197 C.3       1 <0>        -0.0158
      8 C6         -3.0290    1.0126   -0.2630 C.ar      1 <0>        -0.0586
      9 C7         -2.8274   -1.3557   -0.1765 C.ar      1 <0>         0.0279
     10 C8         -3.5928   -0.2404   -0.4767 C.ar      1 <0>        -0.0436
     11 H1          0.4506    0.8851    1.6860 H         1 <0>         0.0341
     12 H2          0.5091   -0.8671    1.6916 H         1 <0>         0.0341
     13 H3          1.2150    0.9007   -0.7154 H         1 <0>         0.0428
     14 H4          1.2566   -0.8662   -0.7082 H         1 <0>         0.0428
     15 H5          2.8928   -0.7381    1.0682 H         1 <0>         0.1216
     16 H6         -1.2865    2.0836    0.4056 H         1 <0>         0.0635
     17 H7          3.6483   -0.8805   -1.2126 H         1 <0>         0.0388
     18 H8          4.7322    0.0787   -0.1943 H         1 <0>         0.0388
     19 H9          3.6116    0.9018   -1.2815 H         1 <0>         0.0388
     20 H10        -3.5965    1.9109   -0.4865 H         1 <0>         0.0619
     21 H11        -3.2210   -2.3558   -0.3253 H         1 <0>         0.0829
     22 H12        -4.5993   -0.3407   -0.8660 H         1 <0>         0.0633
@<TRIPOS>BOND
     1    1    4 1
     2    1    7 1
     3    1   15 1
     4    2    5 ar
     5    2    9 ar
     6    3    4 1
     7    3    5 1
     8    3   11 1
     9    3   12 1
    10    4   13 1
    11    4   14 1
    12    5    6 ar
    13    6    8 ar
    14    6   16 1
    15    7   17 1
    16    7   18 1
    17    7   19 1
    18    8   10 ar
    19    8   20 1
    20    9   10 ar
    21    9   21 1
    22   10   22 1
