@<TRIPOS>MOLECULE
DB06799
   22    24     0     0     0
SMALL
USER_CHARGES

@<TRIPOS>ATOM
      1 N1         -0.4996    1.3046    0.5598 N.3       1 <0>        -0.2637
      2 N2          1.0908    0.2689   -1.0014 N.3       1 <0>        -0.2637
      3 N3         -1.1339   -0.7233   -0.6754 N.3       1 <0>        -0.2637
      4 N4          0.5428   -0.8502    1.1169 N.3       1 <0>        -0.2637
      5 C1          0.5785    1.5396   -0.4321 C.3       1 <0>         0.0565
      6 C2         -1.5986    0.5688   -0.1131 C.3       1 <0>         0.0565
      7 C3          0.0422    0.4447    1.6406 C.3       1 <0>         0.0565
      8 C4         -0.0422   -0.4447   -1.6407 C.3       1 <0>         0.0565
      9 C5          1.5986   -0.5689    0.1131 C.3       1 <0>         0.0565
     10 C6         -0.5785   -1.5396    0.4321 C.3       1 <0>         0.0565
     11 H1          0.2102    2.1884   -1.2375 H         1 <0>         0.0597
     12 H2          1.4003    2.0982    0.0346 H         1 <0>         0.0597
     13 H3         -2.4200    0.3947    0.5945 H         1 <0>         0.0597
     14 H4         -2.0310    1.1890   -0.9092 H         1 <0>         0.0597
     15 H5          0.8483    0.9711    2.1684 H         1 <0>         0.0597
     16 H6         -0.7308    0.2670    2.3999 H         1 <0>         0.0597
     17 H7         -0.4288    0.1457   -2.4820 H         1 <0>         0.0597
     18 H8          0.3113   -1.3837   -2.0865 H         1 <0>         0.0597
     19 H9          2.0004   -1.5115   -0.2810 H         1 <0>         0.0597
     20 H10         2.4506   -0.0722    0.5957 H         1 <0>         0.0597
     21 H11        -1.3698   -1.7757    1.1557 H         1 <0>         0.0597
     22 H12        -0.2408   -2.5110    0.0475 H         1 <0>         0.0597
@<TRIPOS>BOND
     1    1    5 1
     2    1    6 1
     3    1    7 1
     4    2    5 1
     5    2    8 1
     6    2    9 1
     7    3    6 1
     8    3    8 1
     9    3   10 1
    10    4    7 1
    11    4    9 1
    12    4   10 1
    13    5   11 1
    14    5   12 1
    15    6   13 1
    16    6   14 1
    17    7   15 1
    18    7   16 1
    19    8   17 1
    20    8   18 1
    21    9   19 1
    22    9   20 1
    23   10   21 1
    24   10   22 1
