@<TRIPOS>MOLECULE
DB06770
   16    16     0     0     0
SMALL
USER_CHARGES

@<TRIPOS>ATOM
      1 O1          2.6263   -0.1274   -0.9805 O.3       1 <0>        -0.3904
      2 C1          0.5518   -0.0808    0.1818 C.ar      1 <0>        -0.0222
      3 C2          2.0354   -0.1617    0.3128 C.3       1 <0>         0.0692
      4 C3         -0.0813    1.1622    0.1797 C.ar      1 <0>        -0.0564
      5 C4         -0.2025   -1.2479    0.0610 C.ar      1 <0>        -0.0564
      6 C5         -1.4687    1.2382    0.0570 C.ar      1 <0>        -0.0614
      7 C6         -1.5899   -1.1718   -0.0618 C.ar      1 <0>        -0.0614
      8 C7         -2.2229    0.0711   -0.0638 C.ar      1 <0>        -0.0617
      9 H1          2.4318    0.6715    0.9030 H         1 <0>         0.0607
     10 H2          2.3430   -1.0866    0.8119 H         1 <0>         0.0607
     11 H3          0.4956    2.0787    0.2713 H         1 <0>         0.0621
     12 H4          0.2792   -2.2221    0.0594 H         1 <0>         0.0621
     13 H5         -1.9617    2.2059    0.0549 H         1 <0>         0.0618
     14 H6         -2.1775   -2.0805   -0.1565 H         1 <0>         0.0618
     15 H7         -3.3032    0.1302   -0.1596 H         1 <0>         0.0618
     16 H8          2.2447    0.6208   -1.4705 H         1 <0>         0.2098
@<TRIPOS>BOND
     1    1    3 1
     2    1   16 1
     3    2    3 1
     4    2    4 ar
     5    2    5 ar
     6    3    9 1
     7    3   10 1
     8    4    6 ar
     9    4   11 1
    10    5    7 ar
    11    5   12 1
    12    6    8 ar
    13    6   13 1
    14    7    8 ar
    15    7   14 1
    16    8   15 1
