@<TRIPOS>MOLECULE
DB06207
   67    69     0     0     0
SMALL
USER_CHARGES

@<TRIPOS>ATOM
      1 F1          1.5383    0.5911    2.6537 F         1 <0>        -0.1671
      2 F2          0.0819   -0.2512    4.0421 F         1 <0>        -0.1671
      3 F3         -0.5192    0.2680    2.0063 F         1 <0>        -0.1671
      4 O1         -6.9818   -2.4019    0.1140 O.3       1 <0>        -0.3950
      5 O2         -0.7980   -1.7307   -1.2659 O.2       1 <0>        -0.2704
      6 O3          3.1132   -0.9592   -1.0788 O.3       1 <0>        -0.4870
      7 O4          1.2849   -1.5657    0.9310 O.3       1 <0>        -0.4794
      8 N1         -3.3071    0.7183   -0.2989 N.pl3     1 <0>        -0.3287
      9 N2          3.0427    1.6156    0.0859 N.3       1 <0>        -0.3100
     10 N3         -1.5765   -0.7748   -3.1995 N.am      1 <0>        -0.3253
     11 C1         -2.0367    1.2092   -0.5655 C.ar      1 <0>         0.0452
     12 C2         -3.8978    1.5900    0.7142 C.3       1 <0>         0.0162
     13 C3         -1.8540    2.4845   -0.0156 C.ar      1 <0>        -0.0239
     14 C4         -3.1105    2.9153    0.6696 C.3       1 <0>        -0.0101
     15 C5         -3.6877   -0.6632   -0.4494 C.3       1 <0>         0.0143
     16 C6          0.3640    2.5866   -0.8801 C.ar      1 <0>        -0.0448
     17 C7         -1.0082    0.6151   -1.2809 C.ar      1 <0>         0.0580
     18 C8         -0.6709    3.1881   -0.1654 C.ar      1 <0>        -0.0535
     19 C9          1.6572    3.3082   -1.0615 C.3       1 <0>        -0.0124
     20 C10         0.1967    1.3089   -1.4339 C.ar      1 <0>        -0.0446
     21 C11         2.6955    3.0394    0.0530 C.3       1 <0>         0.0089
     22 C12        -5.1540   -0.8667   -0.0864 C.3       1 <0>        -0.0139
     23 C13        -1.1064   -0.7019   -1.8919 C.2       1 <0>         0.2433
     24 C14         2.1796    3.4408    1.4351 C.3       1 <0>        -0.0494
     25 C15        -5.6048   -2.3159   -0.2279 C.3       1 <0>         0.0456
     26 C16         3.9430    1.2830   -1.0055 C.3       1 <0>         0.0304
     27 C17         4.3057   -0.1932   -0.9712 C.3       1 <0>         0.1022
     28 C18         3.1148   -2.1923   -0.4806 C.ar      1 <0>         0.1620
     29 C19         2.1977   -2.4925    0.5268 C.ar      1 <0>         0.1623
     30 C20         4.0443   -3.1502   -0.8856 C.ar      1 <0>        -0.0163
     31 C21         2.2102   -3.7508    1.1287 C.ar      1 <0>        -0.0163
     32 C22         4.0566   -4.4084   -0.2836 C.ar      1 <0>        -0.0581
     33 C23         3.1398   -4.7087    0.7236 C.ar      1 <0>        -0.0581
     34 C24         0.8550   -1.6290    2.2895 C.3       1 <0>         0.1843
     35 C25         0.4816   -0.2448    2.7528 C.3       1 <0>         0.4236
     36 H1         -4.9623    1.7777    0.5373 H         1 <0>         0.0467
     37 H2         -3.7873    1.1346    1.7074 H         1 <0>         0.0467
     38 H3         -3.6327    3.6617    0.0619 H         1 <0>         0.0329
     39 H4         -2.9317    3.3088    1.6740 H         1 <0>         0.0329
     40 H5         -3.0665   -1.2999    0.1911 H         1 <0>         0.0464
     41 H6         -3.5742   -0.9850   -1.4873 H         1 <0>         0.0464
     42 H7         -0.5649    4.1805    0.2604 H         1 <0>         0.0624
     43 H8          1.4579    4.3889   -1.0921 H         1 <0>         0.0328
     44 H9          2.0690    3.0888   -2.0539 H         1 <0>         0.0328
     45 H10         1.0069    0.8556   -2.0010 H         1 <0>         0.0628
     46 H11         3.5887    3.6465   -0.1444 H         1 <0>         0.0461
     47 H12        -5.7934   -0.2287   -0.7106 H         1 <0>         0.0302
     48 H13        -5.3501   -0.5595    0.9485 H         1 <0>         0.0302
     49 H14         3.4992    1.3908    0.9701 H         1 <0>         0.1223
     50 H15         2.9695    3.3337    2.1877 H         1 <0>         0.0245
     51 H16         1.8675    4.4907    1.4393 H         1 <0>         0.0245
     52 H17         1.3317    2.8347    1.7664 H         1 <0>         0.0245
     53 H18        -5.0362   -2.9685    0.4421 H         1 <0>         0.0557
     54 H19        -5.4793   -2.6642   -1.2579 H         1 <0>         0.0557
     55 H20         3.4743    1.4838   -1.9738 H         1 <0>         0.0457
     56 H21         4.8648    1.8734   -0.9453 H         1 <0>         0.0457
     57 H22         4.8431   -0.4243   -0.0416 H         1 <0>         0.0709
     58 H23         4.9597   -0.4318   -1.8175 H         1 <0>         0.0709
     59 H24        -1.6715   -1.6682   -3.6706 H         1 <0>         0.1453
     60 H25        -1.8415    0.0530   -3.7238 H         1 <0>         0.1453
     61 H26        -7.2421   -3.3336    0.0153 H         1 <0>         0.2094
     62 H27         4.7591   -2.9336   -1.6748 H         1 <0>         0.0655
     63 H28         1.4961   -4.0375    1.8949 H         1 <0>         0.0655
     64 H29         4.7780   -5.1555   -0.6014 H         1 <0>         0.0619
     65 H30         3.1452   -5.6910    1.1869 H         1 <0>         0.0619
     66 H31        -0.0152   -2.2901    2.3619 H         1 <0>         0.0788
     67 H32         1.6497   -1.9927    2.9527 H         1 <0>         0.0788
@<TRIPOS>BOND
     1    1   35 1
     2    2   35 1
     3    3   35 1
     4    4   25 1
     5    4   61 1
     6    5   23 2
     7    6   27 1
     8    6   28 1
     9    7   29 1
    10    7   34 1
    11    8   11 1
    12    8   12 1
    13    8   15 1
    14    9   21 1
    15    9   26 1
    16    9   49 1
    17   10   23 am
    18   10   59 1
    19   10   60 1
    20   11   13 ar
    21   11   17 ar
    22   12   14 1
    23   12   36 1
    24   12   37 1
    25   13   14 1
    26   13   18 ar
    27   14   38 1
    28   14   39 1
    29   15   22 1
    30   15   40 1
    31   15   41 1
    32   16   18 ar
    33   16   19 1
    34   16   20 ar
    35   17   20 ar
    36   17   23 1
    37   18   42 1
    38   19   21 1
    39   19   43 1
    40   19   44 1
    41   20   45 1
    42   21   24 1
    43   21   46 1
    44   22   25 1
    45   22   47 1
    46   22   48 1
    47   24   50 1
    48   24   51 1
    49   24   52 1
    50   25   53 1
    51   25   54 1
    52   26   27 1
    53   26   55 1
    54   26   56 1
    55   27   57 1
    56   27   58 1
    57   28   29 ar
    58   28   30 ar
    59   29   31 ar
    60   30   32 ar
    61   30   62 1
    62   31   33 ar
    63   31   63 1
    64   32   33 ar
    65   32   64 1
    66   33   65 1
    67   34   35 1
    68   34   66 1
    69   34   67 1
