@<TRIPOS>MOLECULE
DB06153
   42    45     0     0     0
SMALL
USER_CHARGES

@<TRIPOS>ATOM
      1 S1         -2.0581    4.0225    0.2076 S.3       1 <0>        -0.1010
      2 N1          3.4480   -0.6868    0.0809 N.3       1 <0>        -0.3047
      3 C1          0.7749    0.0656   -0.7074 C.2       1 <0>        -0.0588
      4 C2          1.9089    1.0492   -0.8052 C.3       1 <0>        -0.0180
      5 C3          1.2074   -1.3750   -0.7398 C.3       1 <0>        -0.0180
      6 C4         -0.5045    0.4398   -0.5708 C.2       1 <0>        -0.0104
      7 C5          3.0014    0.7101    0.2154 C.3       1 <0>         0.0023
      8 C6          2.3269   -1.6211    0.2780 C.3       1 <0>         0.0023
      9 C7         -1.4964   -0.6685   -0.4896 C.ar      1 <0>        -0.0142
     10 C8         -0.8719    1.8363   -0.4638 C.2       1 <0>        -0.0072
     11 C9         -2.3647   -0.7813    0.6146 C.ar      1 <0>        -0.0393
     12 C10        -2.3254    0.2200    1.7450 C.3       1 <0>        -0.0226
     13 C11        -2.8149    1.5984    1.3006 C.3       1 <0>        -0.0168
     14 C12        -1.8844    2.3149    0.3558 C.2       1 <0>        -0.0022
     15 C13         4.5242   -0.9727    1.0295 C.3       1 <0>        -0.0127
     16 C14        -0.2423    2.8958   -1.1979 C.2       1 <0>        -0.0467
     17 C15        -1.5953   -1.6036   -1.5361 C.ar      1 <0>        -0.0538
     18 C16        -3.2937   -1.8336    0.6573 C.ar      1 <0>        -0.0580
     19 C17        -0.7887    4.1273   -0.9236 C.2       1 <0>        -0.0235
     20 C18        -2.5236   -2.6431   -1.4792 C.ar      1 <0>        -0.0612
     21 C19        -3.3701   -2.7597   -0.3820 C.ar      1 <0>        -0.0615
     22 H1          2.3228    1.0296   -1.8209 H         1 <0>         0.0323
     23 H2          1.7040    2.0795   -0.5409 H         1 <0>         0.0323
     24 H3          0.4569   -2.1218   -0.4845 H         1 <0>         0.0323
     25 H4          1.5702   -1.6128   -1.7484 H         1 <0>         0.0323
     26 H5          3.8508    1.3834    0.0445 H         1 <0>         0.0429
     27 H6          2.6340    0.9020    1.2333 H         1 <0>         0.0429
     28 H7          2.6827   -2.6514    0.1515 H         1 <0>         0.0429
     29 H8          1.9268   -1.5381    1.2980 H         1 <0>         0.0429
     30 H9         -1.3105    0.2688    2.1600 H         1 <0>         0.0317
     31 H10        -2.9664   -0.1284    2.5650 H         1 <0>         0.0317
     32 H11        -3.8019    1.5130    0.8272 H         1 <0>         0.0322
     33 H12        -2.9449    2.2094    2.2036 H         1 <0>         0.0322
     34 H13         5.3785   -0.3099    0.8533 H         1 <0>         0.0391
     35 H14         4.8904   -1.9971    0.8983 H         1 <0>         0.0391
     36 H15         4.2024   -0.8519    2.0702 H         1 <0>         0.0391
     37 H16         0.4970    2.7901   -1.9824 H         1 <0>         0.0629
     38 H17        -0.9733   -1.5193   -2.4251 H         1 <0>         0.0624
     39 H18        -3.9713   -1.9356    1.5016 H         1 <0>         0.0620
     40 H19        -0.5195    5.0788   -1.3601 H         1 <0>         0.0693
     41 H20        -2.5909   -3.3558   -2.2960 H         1 <0>         0.0618
     42 H21        -4.0953   -3.5670   -0.3378 H         1 <0>         0.0618
@<TRIPOS>BOND
     1    1   14 1
     2    1   19 1
     3    2    7 1
     4    2    8 1
     5    2   15 1
     6    3    4 1
     7    3    5 1
     8    3    6 2
     9    4    7 1
    10    4   22 1
    11    4   23 1
    12    5    8 1
    13    5   24 1
    14    5   25 1
    15    6    9 1
    16    6   10 1
    17    7   26 1
    18    7   27 1
    19    8   28 1
    20    8   29 1
    21    9   11 ar
    22    9   17 ar
    23   10   14 2
    24   10   16 1
    25   11   12 1
    26   11   18 ar
    27   12   13 1
    28   12   30 1
    29   12   31 1
    30   13   14 1
    31   13   32 1
    32   13   33 1
    33   15   34 1
    34   15   35 1
    35   15   36 1
    36   16   19 2
    37   16   37 1
    38   17   20 ar
    39   17   38 1
    40   18   21 ar
    41   18   39 1
    42   19   40 1
    43   20   21 ar
    44   20   41 1
    45   21   42 1
