@<TRIPOS>MOLECULE
DB06774
   49    49     0     0     0
SMALL
USER_CHARGES

@<TRIPOS>ATOM
      1 O1          3.4457    0.6353   -1.7322 O.2       1 <0>        -0.2758
      2 O2          0.0855   -3.2961   -1.3708 O.3       1 <0>        -0.4914
      3 O3         -1.1538   -3.6956    1.0853 O.3       1 <0>        -0.5033
      4 N1          3.4464    0.6358    0.5932 N.am      1 <0>        -0.3112
      5 C1          0.5880    2.4104   -0.4884 C.3       1 <0>        -0.0492
      6 C2          1.8176    3.0728    0.1450 C.3       1 <0>        -0.0445
      7 C3         -0.7136    2.6958    0.2687 C.3       1 <0>        -0.0347
      8 C4          3.1105    2.7183   -0.5894 C.3       1 <0>         0.0240
      9 C5         -3.9336    0.5595   -0.3685 C.3       1 <0>        -0.0286
     10 C6         -1.9186    2.0619   -0.3647 C.2       1 <0>        -0.0877
     11 C7          3.3494    1.2228   -0.6570 C.2       1 <0>         0.2133
     12 C8         -2.7193    1.1894    0.2655 C.2       1 <0>        -0.0854
     13 C9          3.6788   -0.7770    0.7865 C.3       1 <0>         0.0369
     14 C10         2.3954   -1.5523    0.8622 C.ar      1 <0>        -0.0266
     15 C11        -5.1928    0.9411    0.4091 C.3       1 <0>        -0.0592
     16 C12        -3.7731   -0.9595   -0.4205 C.3       1 <0>        -0.0592
     17 C13         1.8249   -2.0723   -0.2996 C.ar      1 <0>        -0.0116
     18 C14         1.7734   -1.7529    2.0946 C.ar      1 <0>        -0.0534
     19 C15         0.6326   -2.7931   -0.2291 C.ar      1 <0>         0.1616
     20 C16         0.5810   -2.4732    2.1650 C.ar      1 <0>        -0.0162
     21 C17         0.0107   -2.9935    1.0032 C.ar      1 <0>         0.1585
     22 C18         0.7839   -3.0467   -2.5889 C.3       1 <0>         0.0790
     23 H1          0.4912    2.7549   -1.5260 H         1 <0>         0.0268
     24 H2          0.7254    1.3231   -0.5313 H         1 <0>         0.0268
     25 H3          1.8830    2.7821    1.1997 H         1 <0>         0.0270
     26 H4          1.6901    4.1619    0.1301 H         1 <0>         0.0270
     27 H5         -0.6050    2.3620    1.3082 H         1 <0>         0.0307
     28 H6         -0.8786    3.7797    0.3042 H         1 <0>         0.0307
     29 H7          3.9659    3.1841   -0.0869 H         1 <0>         0.0358
     30 H8          3.0793    3.1098   -1.6128 H         1 <0>         0.0358
     31 H9         -4.0485    0.9227   -1.3977 H         1 <0>         0.0338
     32 H10        -2.1424    2.3513   -1.3884 H         1 <0>         0.0569
     33 H11        -2.4945    0.9068    1.2917 H         1 <0>         0.0572
     34 H12         4.2525   -0.8925    1.7131 H         1 <0>         0.0512
     35 H13         4.3092   -1.1574   -0.0259 H         1 <0>         0.0512
     36 H14         3.3710    1.2138    1.4245 H         1 <0>         0.1490
     37 H15        -6.0828    0.5070   -0.0591 H         1 <0>         0.0235
     38 H16        -5.3251    2.0286    0.4320 H         1 <0>         0.0235
     39 H17        -5.1505    0.5852    1.4448 H         1 <0>         0.0235
     40 H18        -3.6755   -1.3896    0.5828 H         1 <0>         0.0235
     41 H19        -4.6401   -1.4241   -0.9024 H         1 <0>         0.0235
     42 H20        -2.8824   -1.2404   -0.9940 H         1 <0>         0.0235
     43 H21         2.3536   -1.8887   -1.2284 H         1 <0>         0.0658
     44 H22         2.2069   -1.3510    3.0065 H         1 <0>         0.0622
     45 H23         0.1067   -2.6213    3.1315 H         1 <0>         0.0655
     46 H24        -1.4387   -3.7289    2.0146 H         1 <0>         0.2923
     47 H25         0.2072   -3.5162   -3.3925 H         1 <0>         0.0660
     48 H26         1.7729   -3.5176   -2.5913 H         1 <0>         0.0660
     49 H27         0.8303   -1.9759   -2.8159 H         1 <0>         0.0660
@<TRIPOS>BOND
     1    1   11 2
     2    2   19 1
     3    2   22 1
     4    3   21 1
     5    3   46 1
     6    4   11 am
     7    4   13 1
     8    4   36 1
     9    5    6 1
    10    5    7 1
    11    5   23 1
    12    5   24 1
    13    6    8 1
    14    6   25 1
    15    6   26 1
    16    7   10 1
    17    7   27 1
    18    7   28 1
    19    8   11 1
    20    8   29 1
    21    8   30 1
    22    9   12 1
    23    9   15 1
    24    9   16 1
    25    9   31 1
    26   10   12 2
    27   10   32 1
    28   12   33 1
    29   13   14 1
    30   13   34 1
    31   13   35 1
    32   14   17 ar
    33   14   18 ar
    34   15   37 1
    35   15   38 1
    36   15   39 1
    37   16   40 1
    38   16   41 1
    39   16   42 1
    40   17   19 ar
    41   17   43 1
    42   18   20 ar
    43   18   44 1
    44   19   21 ar
    45   20   21 ar
    46   20   45 1
    47   22   47 1
    48   22   48 1
    49   22   49 1
