@<TRIPOS>MOLECULE
DB06155
   51    54     0     0     0
SMALL
USER_CHARGES

@<TRIPOS>ATOM
      1 Cl1         2.1345    1.5391   -2.7410 Cl        1 <0>        -0.0813
      2 Cl2         7.7621   -2.1462   -0.0167 Cl        1 <0>        -0.0835
      3 Cl3         4.5535    5.4419    0.0585 Cl        1 <0>        -0.0835
      4 O1         -1.9997   -2.3327    0.0387 O.2       1 <0>        -0.2671
      5 N1         -3.8726   -0.3364    0.0297 N.3       1 <0>        -0.2268
      6 N2         -2.5134   -0.0831    0.0443 N.am      1 <0>        -0.2429
      7 N3          1.4530    0.4270    0.0092 N.pl3     1 <0>        -0.2297
      8 N4          0.1101    0.4806    0.0191 N.2       1 <0>        -0.1608
      9 C1         -6.6881    0.4261   -0.0306 C.3       1 <0>        -0.0506
     10 C2         -5.9674   -0.1155   -1.2607 C.3       1 <0>        -0.0386
     11 C3         -6.0053   -0.0558    1.2450 C.3       1 <0>        -0.0386
     12 C4         -4.4690    0.1861   -1.2052 C.3       1 <0>         0.0167
     13 C5         -4.5054    0.2434    1.2201 C.3       1 <0>         0.0167
     14 C6         -1.6374   -1.1562    0.0479 C.2       1 <0>         0.2781
     15 C7         -0.2109   -0.7985    0.0344 C.2       1 <0>         0.1522
     16 C8          0.8628   -1.6760    0.0347 C.2       1 <0>         0.0077
     17 C9          1.9539   -0.8418    0.0176 C.2       1 <0>         0.0783
     18 C10         3.3652   -1.1580    0.0092 C.ar      1 <0>         0.0008
     19 C11         0.8518   -3.1506    0.0494 C.3       1 <0>        -0.0354
     20 C12         2.1871    1.6144   -0.0089 C.ar      1 <0>         0.0844
     21 C13         4.0320   -1.3217   -1.2026 C.ar      1 <0>        -0.0512
     22 C14         4.0516   -1.2984    1.2131 C.ar      1 <0>        -0.0512
     23 C15         2.5556    2.2151   -1.2064 C.ar      1 <0>         0.0677
     24 C16         2.5411    2.1824    1.2094 C.ar      1 <0>        -0.0334
     25 C17         5.3930   -1.6274   -1.2106 C.ar      1 <0>        -0.0428
     26 C18         5.4126   -1.6040    1.2051 C.ar      1 <0>        -0.0428
     27 C19         3.2892    3.4013   -1.1859 C.ar      1 <0>        -0.0230
     28 C20         3.2746    3.3686    1.2298 C.ar      1 <0>        -0.0413
     29 C21         6.0833   -1.7686   -0.0068 C.ar      1 <0>         0.0410
     30 C22         3.6488    3.9780    0.0322 C.ar      1 <0>         0.0425
     31 H1         -7.7367    0.1093   -0.0388 H         1 <0>         0.0266
     32 H2         -6.6821    1.5227   -0.0566 H         1 <0>         0.0266
     33 H3         -6.1217   -1.2000   -1.3261 H         1 <0>         0.0278
     34 H4         -6.4005    0.3241   -2.1662 H         1 <0>         0.0278
     35 H5         -6.4647    0.4263    2.1152 H         1 <0>         0.0278
     36 H6         -6.1624   -1.1360    1.3576 H         1 <0>         0.0278
     37 H7         -3.9909   -0.2812   -2.0752 H         1 <0>         0.0443
     38 H8         -4.3079    1.2693   -1.2907 H         1 <0>         0.0443
     39 H9         -4.3460    1.3295    1.2595 H         1 <0>         0.0443
     40 H10        -4.0539   -0.1823    2.1251 H         1 <0>         0.0443
     41 H11        -2.1945    0.8816    0.0422 H         1 <0>         0.1696
     42 H12         1.8617   -3.5720    0.0562 H         1 <0>         0.0279
     43 H13         0.3358   -3.5236    0.9400 H         1 <0>         0.0279
     44 H14         0.3403   -3.5409   -0.8367 H         1 <0>         0.0279
     45 H15         3.5080   -1.2252   -2.1499 H         1 <0>         0.0625
     46 H16         3.5426   -1.1733    2.1657 H         1 <0>         0.0625
     47 H17         2.2566    1.7191    2.1509 H         1 <0>         0.0640
     48 H18         5.9022   -1.7548   -2.1625 H         1 <0>         0.0632
     49 H19         5.9376   -1.7109    2.1509 H         1 <0>         0.0632
     50 H20         3.5822    3.8785   -2.1187 H         1 <0>         0.0647
     51 H21         3.5478    3.8065    2.1863 H         1 <0>         0.0633
@<TRIPOS>BOND
     1    1   23 1
     2    2   29 1
     3    3   30 1
     4    4   14 2
     5    5    6 1
     6    5   12 1
     7    5   13 1
     8    6   14 am
     9    6   41 1
    10    7    8 1
    11    7   17 2
    12    7   20 1
    13    8   15 1
    14    9   10 1
    15    9   11 1
    16    9   31 1
    17    9   32 1
    18   10   12 1
    19   10   33 1
    20   10   34 1
    21   11   13 1
    22   11   35 1
    23   11   36 1
    24   12   37 1
    25   12   38 1
    26   13   39 1
    27   13   40 1
    28   14   15 1
    29   15   16 2
    30   16   17 1
    31   16   19 1
    32   17   18 1
    33   18   21 ar
    34   18   22 ar
    35   19   42 1
    36   19   43 1
    37   19   44 1
    38   20   23 ar
    39   20   24 ar
    40   21   25 ar
    41   21   45 1
    42   22   26 ar
    43   22   46 1
    44   23   27 ar
    45   24   28 ar
    46   24   47 1
    47   25   29 ar
    48   25   48 1
    49   26   29 ar
    50   26   49 1
    51   27   30 ar
    52   27   50 1
    53   28   30 ar
    54   28   51 1
