@<TRIPOS>MOLECULE
DB06595
   73    81     0     0     0
SMALL
USER_CHARGES

@<TRIPOS>ATOM
      1 O1         -0.4606   -0.2005    2.4506 O.3       1 <0>        -0.3282
      2 O2          0.7093    0.6311   -0.5647 O.3       1 <0>        -0.3732
      3 O3         -6.3408   -2.1977   -1.4882 O.2       1 <0>        -0.2702
      4 O4          3.9688    1.6014    1.0645 O.2       1 <0>        -0.2700
      5 N1         -1.3278    1.3744    0.9739 N.pl3     1 <0>        -0.3070
      6 N2         -1.4375   -1.6235    0.8922 N.pl3     1 <0>        -0.3115
      7 N3          3.1479   -0.5034    0.4606 N.am      1 <0>        -0.2947
      8 N4         -6.6355    0.1189   -1.6351 N.am      1 <0>        -0.3072
      9 C1         -0.1373    0.9816    1.7130 C.3       1 <0>         0.1744
     10 C2          1.1113    0.8316    0.7976 C.3       1 <0>         0.1246
     11 C3         -0.3075   -1.4213    1.7693 C.3       1 <0>         0.1404
     12 C4          1.9387   -0.3733    1.2351 C.3       1 <0>         0.0607
     13 C5          1.0731   -1.6252    1.1291 C.3       1 <0>         0.0140
     14 C6         -2.3750    0.6301    0.4822 C.ar      1 <0>         0.0772
     15 C7         -2.4238   -0.7943    0.4347 C.ar      1 <0>         0.0774
     16 C8         -3.5156    1.2896   -0.1120 C.ar      1 <0>         0.0151
     17 C9         -3.6117   -1.3509   -0.1922 C.ar      1 <0>         0.0221
     18 C10        -1.6843    2.6621    0.5470 C.ar      1 <0>         0.0527
     19 C11         0.1921    1.9355    2.8854 C.3       1 <0>        -0.0136
     20 C12        -1.9238   -2.8805    0.5192 C.ar      1 <0>         0.0524
     21 C13        -3.0018    2.6501   -0.0028 C.ar      1 <0>         0.0081
     22 C14        -4.6754    0.7380   -0.6465 C.ar      1 <0>        -0.0078
     23 C15        -4.7097   -0.6473   -0.6824 C.ar      1 <0>         0.0518
     24 C16        -3.1983   -2.7569   -0.1091 C.ar      1 <0>         0.0085
     25 C17        -5.9029    1.3130   -1.2699 C.3       1 <0>         0.0385
     26 C18        -0.9538    3.8685    0.5775 C.ar      1 <0>        -0.0375
     27 C19        -5.9661   -1.0559   -1.3068 C.2       1 <0>         0.2453
     28 C20        -1.3285   -4.1451    0.7130 C.ar      1 <0>        -0.0375
     29 C21        -3.5702    3.8812   -0.4190 C.ar      1 <0>        -0.0520
     30 C22         3.3076   -1.7589   -0.2812 C.3       1 <0>         0.0039
     31 C23        -3.8260   -3.9542   -0.5391 C.ar      1 <0>        -0.0520
     32 C24         4.0865    0.5418    0.4499 C.2       1 <0>         0.2467
     33 C25         1.8313    0.5016   -1.4289 C.3       1 <0>         0.0371
     34 C26        -1.5476    5.0580    0.1479 C.ar      1 <0>        -0.0598
     35 C27        -2.8466    5.0697   -0.3297 C.ar      1 <0>        -0.0611
     36 C28        -1.9880   -5.2923    0.2743 C.ar      1 <0>        -0.0598
     37 C29        -3.2220   -5.1997   -0.3457 C.ar      1 <0>        -0.0611
     38 C30         5.3212    0.3774   -0.3335 C.ar      1 <0>         0.0369
     39 C31         5.3447    0.7829   -1.6590 C.ar      1 <0>        -0.0496
     40 C32         6.4394   -0.1795    0.2679 C.ar      1 <0>        -0.0496
     41 C33         6.5150    0.6273   -2.4017 C.ar      1 <0>        -0.0610
     42 C34         7.6097   -0.3350   -0.4749 C.ar      1 <0>        -0.0610
     43 C35         7.6476    0.0685   -1.8096 C.ar      1 <0>        -0.0617
     44 H1          1.6618    1.7766    0.8165 H         1 <0>         0.0663
     45 H2         -0.4180   -2.1850    2.5498 H         1 <0>         0.0839
     46 H3          2.2515   -0.2308    2.2779 H         1 <0>         0.0529
     47 H4          0.8750   -1.9395    0.1017 H         1 <0>         0.0328
     48 H5          1.5695   -2.4690    1.6260 H         1 <0>         0.0328
     49 H6          0.8906    1.4601    3.5860 H         1 <0>         0.0277
     50 H7          0.6549    2.8736    2.5774 H         1 <0>         0.0277
     51 H8         -0.7092    2.1724    3.4643 H         1 <0>         0.0277
     52 H9         -6.4974    1.8943   -0.5613 H         1 <0>         0.0512
     53 H10        -5.6836    1.8843   -2.1749 H         1 <0>         0.0512
     54 H11         0.0766    3.9003    0.9109 H         1 <0>         0.0638
     55 H12        -0.3607   -4.2395    1.1970 H         1 <0>         0.0638
     56 H13        -4.5733    3.9070   -0.8374 H         1 <0>         0.0624
     57 H14         2.4632   -2.1096   -0.8702 H         1 <0>         0.0429
     58 H15         3.5665   -2.5361    0.4473 H         1 <0>         0.0429
     59 H16         4.1504   -1.7057   -0.9740 H         1 <0>         0.0429
     60 H17        -4.7911   -3.9308   -1.0323 H         1 <0>         0.0624
     61 H18        -7.5455    0.1351   -2.0848 H         1 <0>         0.1493
     62 H19         2.6137    1.2219   -1.2231 H         1 <0>         0.0524
     63 H20         1.4468    0.9034   -2.3794 H         1 <0>         0.0524
     64 H21         2.0580   -0.5019   -1.7515 H         1 <0>         0.0524
     65 H22        -0.9784    5.9831    0.1852 H         1 <0>         0.0618
     66 H23        -3.2957    6.0014   -0.6613 H         1 <0>         0.0618
     67 H24        -1.5278   -6.2655    0.4211 H         1 <0>         0.0618
     68 H25        -3.7267   -6.0998   -0.6856 H         1 <0>         0.0618
     69 H26         4.4882    1.2350   -2.1437 H         1 <0>         0.0625
     70 H27         6.4175   -0.4965    1.3069 H         1 <0>         0.0625
     71 H28         6.5461    0.9445   -3.4399 H         1 <0>         0.0618
     72 H29         8.4917   -0.7702   -0.0140 H         1 <0>         0.0618
     73 H30         8.5591   -0.0519   -2.3876 H         1 <0>         0.0618
@<TRIPOS>BOND
     1    1    9 1
     2    1   11 1
     3    2   10 1
     4    2   33 1
     5    3   27 2
     6    4   32 2
     7    5    9 1
     8    5   14 2
     9    5   18 1
    10    6   11 1
    11    6   15 2
    12    6   20 1
    13    7   12 1
    14    7   30 1
    15    7   32 am
    16    8   25 1
    17    8   27 am
    18    8   61 1
    19    9   10 1
    20    9   19 1
    21   10   12 1
    22   10   44 1
    23   11   13 1
    24   11   45 1
    25   12   13 1
    26   12   46 1
    27   13   47 1
    28   13   48 1
    29   14   15 ar
    30   14   16 ar
    31   15   17 ar
    32   16   21 1
    33   16   22 ar
    34   17   23 ar
    35   17   24 1
    36   18   21 ar
    37   18   26 ar
    38   19   49 1
    39   19   50 1
    40   19   51 1
    41   20   24 ar
    42   20   28 ar
    43   21   29 ar
    44   22   23 ar
    45   22   25 1
    46   23   27 1
    47   24   31 ar
    48   25   52 1
    49   25   53 1
    50   26   34 ar
    51   26   54 1
    52   28   36 ar
    53   28   55 1
    54   29   35 ar
    55   29   56 1
    56   30   57 1
    57   30   58 1
    58   30   59 1
    59   31   37 ar
    60   31   60 1
    61   32   38 1
    62   33   62 1
    63   33   63 1
    64   33   64 1
    65   34   35 ar
    66   34   65 1
    67   35   66 1
    68   36   37 ar
    69   36   67 1
    70   37   68 1
    71   38   39 ar
    72   38   40 ar
    73   39   41 ar
    74   39   69 1
    75   40   42 ar
    76   40   70 1
    77   41   43 ar
    78   41   71 1
    79   42   43 ar
    80   42   72 1
    81   43   73 1
