@<TRIPOS>MOLECULE
DB06803
   29    30     0     0     0
SMALL
USER_CHARGES

@<TRIPOS>ATOM
      1 Cl1         1.5251   -2.8806    0.7074 Cl        1 <0>        -0.0814
      2 Cl2        -4.3712   -3.0654   -0.7249 Cl        1 <0>        -0.0835
      3 O1         -2.9737    2.4983    0.5362 O.3       1 <0>        -0.5060
      4 O2         -0.5893    1.8605   -0.5173 O.2       1 <0>        -0.2697
      5 O3          6.1352    1.2159   -0.2966 O.3       1 <0>        -0.5760
      6 O4          6.3158   -0.9145    0.2202 O.2       1 <0>         0.0414
      7 N1          0.0331   -0.3055    0.0859 N.am      1 <0>        -0.2802
      8 N2          5.6243    0.1029   -0.0261 N.pl3     1 <0>         0.0796
      9 C1          1.4483   -0.2291    0.0626 C.ar      1 <0>         0.0525
     10 C2         -2.2877    0.2960   -0.1229 C.ar      1 <0>         0.0797
     11 C3         -0.8921    0.7065   -0.1950 C.2       1 <0>         0.2519
     12 C4          2.2228   -1.3450    0.3321 C.ar      1 <0>         0.0685
     13 C5          2.0255    0.9948   -0.2361 C.ar      1 <0>        -0.0326
     14 C6         -3.2823    1.2043    0.2394 C.ar      1 <0>         0.1290
     15 C7          4.2095   -0.0102    0.0031 C.ar      1 <0>         0.2747
     16 C8         -2.6240   -1.0243   -0.4216 C.ar      1 <0>        -0.0277
     17 C9          3.6129   -1.2352    0.3021 C.ar      1 <0>         0.0357
     18 C10         3.4156    1.1048   -0.2659 C.ar      1 <0>         0.0174
     19 C11        -4.6134    0.7923    0.3028 C.ar      1 <0>        -0.0180
     20 C12        -3.9551   -1.4363   -0.3581 C.ar      1 <0>         0.0419
     21 C13        -4.9498   -0.5280    0.0041 C.ar      1 <0>        -0.0399
     22 H1         -0.3125   -1.2170    0.3741 H         1 <0>         0.1552
     23 H2          1.4992    1.9117   -0.4474 H         1 <0>         0.0639
     24 H3         -1.8804   -1.7468   -0.7482 H         1 <0>         0.0641
     25 H4          4.2144   -2.1165    0.5152 H         1 <0>         0.0701
     26 H5          3.8468    2.0750   -0.5003 H         1 <0>         0.0686
     27 H6         -5.3931    1.4948    0.5846 H         1 <0>         0.0655
     28 H7         -5.9912   -0.8350    0.0580 H         1 <0>         0.0633
     29 H8         -2.0126    2.6315    0.5323 H         1 <0>         0.2922
@<TRIPOS>BOND
     1    1   12 1
     2    2   20 1
     3    3   14 1
     4    3   29 1
     5    4   11 2
     6    5    8 1
     7    6    8 2
     8    7    9 1
     9    7   11 am
    10    7   22 1
    11    8   15 1
    12    9   12 ar
    13    9   13 ar
    14   10   11 1
    15   10   14 ar
    16   10   16 ar
    17   12   17 ar
    18   13   18 ar
    19   13   23 1
    20   14   19 ar
    21   15   17 ar
    22   15   18 ar
    23   16   20 ar
    24   16   24 1
    25   17   25 1
    26   18   26 1
    27   19   21 ar
    28   19   27 1
    29   20   21 ar
    30   21   28 1
