@<TRIPOS>MOLECULE
DB06213
   46    49     0     0     0
SMALL
USER_CHARGES

@<TRIPOS>ATOM
      1 O1         -3.4165    0.7875    1.1268 O.3       1 <0>        -0.3457
      2 O2         -1.9148    2.5082   -1.1267 O.3       1 <0>        -0.3847
      3 O3         -4.5395    2.4385   -1.8602 O.3       1 <0>        -0.3864
      4 O4         -5.9148    1.5213    2.2201 O.3       1 <0>        -0.3924
      5 O5          4.7925    2.4757   -0.5219 O.2       1 <0>        -0.2701
      6 N1         -1.9725   -0.8486    0.1924 N.pl3     1 <0>        -0.2855
      7 N2         -2.3309   -3.0490    0.1049 N.2       1 <0>        -0.2306
      8 N3          0.4523   -0.8176    0.0447 N.ar      1 <0>        -0.1908
      9 N4          1.3606   -3.0764   -0.1244 N.ar      1 <0>        -0.1938
     10 N5          2.7341   -1.2037   -0.1169 N.pl3     1 <0>        -0.2048
     11 N6         -0.0312   -5.0231   -0.1363 N.pl3     1 <0>        -0.3413
     12 N7          3.7993   -2.0186   -0.2239 N.2       1 <0>        -0.1715
     13 N8          6.5445    1.2455    0.3342 N.am      1 <0>        -0.3143
     14 C1         -2.5577    1.2359   -1.0690 C.3       1 <0>         0.1285
     15 C2         -2.2630    0.5833    0.2828 C.3       1 <0>         0.1667
     16 C3         -4.0675    1.3838   -1.0498 C.3       1 <0>         0.1135
     17 C4         -4.3494    1.6239    0.4233 C.3       1 <0>         0.1126
     18 C5         -5.7676    1.2699    0.8335 C.3       1 <0>         0.0730
     19 C6         -0.7401   -1.4308    0.0873 C.ar      1 <0>         0.1695
     20 C7         -2.8948   -1.8629    0.1993 C.2       1 <0>         0.1004
     21 C8         -0.9844   -2.7937    0.0341 C.ar      1 <0>         0.1474
     22 C9          0.1239   -3.6275   -0.0761 C.ar      1 <0>         0.1493
     23 C10         1.4467   -1.7256   -0.0619 C.ar      1 <0>         0.2550
     24 C11         3.0611    0.1215   -0.0728 C.2       1 <0>         0.0465
     25 C12         4.4311    0.1755   -0.1564 C.2       1 <0>         0.0746
     26 C13         4.8313   -1.1711   -0.2473 C.2       1 <0>         0.0620
     27 C14         5.2280    1.3637   -0.1484 C.2       1 <0>         0.2468
     28 C15         7.4620    2.3579    0.4324 C.3       1 <0>         0.0004
     29 H1         -2.2101    0.6602   -1.9330 H         1 <0>         0.0665
     30 H2         -1.4086    1.0460    0.7903 H         1 <0>         0.0866
     31 H3         -4.5251    0.4439   -1.3825 H         1 <0>         0.0647
     32 H4         -4.1377    2.6627    0.7076 H         1 <0>         0.0647
     33 H5         -5.9842    0.2105    0.6622 H         1 <0>         0.0584
     34 H6         -6.5035    1.8726    0.2940 H         1 <0>         0.0584
     35 H7         -0.9557    2.3500   -1.0949 H         1 <0>         0.2101
     36 H8         -5.5046    2.4848   -1.7535 H         1 <0>         0.2100
     37 H9         -3.9589   -1.6838    0.2704 H         1 <0>         0.1030
     38 H10        -5.2547    0.9817    2.6881 H         1 <0>         0.2095
     39 H11        -0.9531   -5.4367   -0.0996 H         1 <0>         0.1438
     40 H12         0.7896   -5.6080   -0.2154 H         1 <0>         0.1438
     41 H13         2.3235    0.9094    0.0126 H         1 <0>         0.0839
     42 H14         5.8290   -1.5779   -0.3331 H         1 <0>         0.0856
     43 H15         6.8679    0.3448    0.6743 H         1 <0>         0.1487
     44 H16         7.3641    3.0018   -0.4452 H         1 <0>         0.0426
     45 H17         8.4795    1.9669    0.5008 H         1 <0>         0.0426
     46 H18         7.2200    2.9278    1.3329 H         1 <0>         0.0426
@<TRIPOS>BOND
     1    1   15 1
     2    1   17 1
     3    2   14 1
     4    2   35 1
     5    3   16 1
     6    3   36 1
     7    4   18 1
     8    4   38 1
     9    5   27 2
    10    6   15 1
    11    6   19 1
    12    6   20 1
    13    7   20 2
    14    7   21 1
    15    8   19 ar
    16    8   23 ar
    17    9   22 ar
    18    9   23 ar
    19   10   12 1
    20   10   23 1
    21   10   24 2
    22   11   22 1
    23   11   39 1
    24   11   40 1
    25   12   26 1
    26   13   27 am
    27   13   28 1
    28   13   43 1
    29   14   15 1
    30   14   16 1
    31   14   29 1
    32   15   30 1
    33   16   17 1
    34   16   31 1
    35   17   18 1
    36   17   32 1
    37   18   33 1
    38   18   34 1
    39   19   21 ar
    40   20   37 1
    41   21   22 ar
    42   24   25 1
    43   24   41 1
    44   25   26 2
    45   25   27 1
    46   26   42 1
    47   28   44 1
    48   28   45 1
    49   28   46 1
