@<TRIPOS>MOLECULE
DB06690
    3     2     0     0     0
SMALL
USER_CHARGES

@<TRIPOS>ATOM
      1 O1         -1.3063    0.0000    0.0000 O.3       1 <0>        -0.3837
      2 N1          0.1096    0.0000    0.0000 N.1       1 <0>         0.1588
      3 N2          1.1967    0.0000    0.0000 N.1       1 <0>         0.2249
@<TRIPOS>BOND
     1    1    2 1
     2    2    3 3
