@<TRIPOS>MOLECULE
DB06243
   24    23     0     0     0
SMALL
USER_CHARGES

@<TRIPOS>ATOM
      1 F1         -2.6483    0.3771   -1.8604 F         1 <0>        -0.2066
      2 F2         -3.7040    0.6402    0.0246 F         1 <0>        -0.2066
      3 O1         -1.5057   -1.8992   -0.9706 O.3       1 <0>        -0.4792
      4 O2         -1.7357   -1.8910    1.2776 O.2       1 <0>        -0.2487
      5 N1         -1.3837    0.7651    1.5106 N.3       1 <0>        -0.3113
      6 N2          3.6798   -0.3922    0.2415 N.3       1 <0>        -0.3300
      7 C1         -1.3669    0.2466    0.1351 C.3       1 <0>         0.1750
      8 C2          0.0103    0.5356   -0.5087 C.3       1 <0>        -0.0179
      9 C3          1.2153   -0.0659    0.2323 C.3       1 <0>        -0.0383
     10 C4         -2.5326    0.8986   -0.6131 C.3       1 <0>         0.2672
     11 C5          2.5503    0.1866   -0.4756 C.3       1 <0>        -0.0068
     12 C6         -1.5631   -1.2725    0.2337 C.2       1 <0>         0.3305
     13 H1          0.1531    1.6224   -0.5804 H         1 <0>         0.0291
     14 H2          0.0141    0.1625   -1.5413 H         1 <0>         0.0291
     15 H3          1.0815   -1.1483    0.3459 H         1 <0>         0.0278
     16 H4          1.2774    0.3558    1.2424 H         1 <0>         0.0278
     17 H5         -2.4210    1.9840   -0.7021 H         1 <0>         0.1043
     18 H6          2.7109    1.2651   -0.5843 H         1 <0>         0.0422
     19 H7          2.5176   -0.2418   -1.4834 H         1 <0>         0.0422
     20 H8         -0.7133    0.2639    2.0910 H         1 <0>         0.1194
     21 H9         -2.2991    0.6060    1.9304 H         1 <0>         0.1194
     22 H10         3.7391    0.0158    1.1735 H         1 <0>         0.1182
     23 H11         4.5460   -0.1451   -0.2351 H         1 <0>         0.1182
     24 H12        -1.6219   -2.8693   -0.8835 H         1 <0>         0.2951
@<TRIPOS>BOND
     1    1   10 1
     2    2   10 1
     3    3   12 1
     4    3   24 1
     5    4   12 2
     6    5    7 1
     7    5   20 1
     8    5   21 1
     9    6   11 1
    10    6   22 1
    11    6   23 1
    12    7    8 1
    13    7   10 1
    14    7   12 1
    15    8    9 1
    16    8   13 1
    17    8   14 1
    18    9   11 1
    19    9   15 1
    20    9   16 1
    21   10   17 1
    22   11   18 1
    23   11   19 1
