@<TRIPOS>MOLECULE
DB06807
   28    29     0     0     0
SMALL
USER_CHARGES

@<TRIPOS>ATOM
      1 O1          0.8985    0.4578   -0.4251 O.3       1 <0>        -0.4223
      2 O2         -1.7295   -2.4346    0.8726 O.3       1 <0>        -0.5059
      3 O3          0.6606   -1.1546    1.2420 O.2       1 <0>        -0.2444
      4 N1         -5.3802    0.4588   -0.3169 N.pl3     1 <0>        -0.3579
      5 C1         -1.2646   -0.1686    0.2381 C.ar      1 <0>         0.1008
      6 C2         -2.1657   -1.2082    0.4684 C.ar      1 <0>         0.1326
      7 C3         -1.7301    1.0792   -0.1763 C.ar      1 <0>        -0.0425
      8 C4         -3.9982    0.2480   -0.1305 C.ar      1 <0>         0.0281
      9 C5         -3.5327   -0.9999    0.2840 C.ar      1 <0>         0.0013
     10 C6         -3.0969    1.2875   -0.3606 C.ar      1 <0>        -0.0400
     11 C7          0.1663   -0.3655    0.4264 C.2       1 <0>         0.3480
     12 C8          2.2835    0.3213   -0.2983 C.ar      1 <0>         0.1320
     13 C9          2.9306   -0.6081   -1.0816 C.ar      1 <0>        -0.0192
     14 C10         2.9463    1.1215    0.6053 C.ar      1 <0>        -0.0192
     15 C11         4.3129   -0.7447   -0.9544 C.ar      1 <0>        -0.0583
     16 C12         4.3287    0.9850    0.7323 C.ar      1 <0>        -0.0583
     17 C13         5.0119    0.0517   -0.0476 C.ar      1 <0>        -0.0615
     18 H1         -1.0566    1.9144   -0.3495 H         1 <0>         0.0627
     19 H2         -4.2308   -1.8142    0.4648 H         1 <0>         0.0673
     20 H3         -3.4480    2.2652   -0.6806 H         1 <0>         0.0636
     21 H4          2.3863   -1.2275   -1.7876 H         1 <0>         0.0654
     22 H5          2.4143    1.8479    1.2116 H         1 <0>         0.0654
     23 H6          4.8449   -1.4713   -1.5616 H         1 <0>         0.0619
     24 H7          4.8731    1.6052    1.4384 H         1 <0>         0.0619
     25 H8          6.0882   -0.0547    0.0515 H         1 <0>         0.0618
     26 H9         -5.7183    1.3632   -0.6180 H         1 <0>         0.1423
     27 H10        -6.0343   -0.2944   -0.1508 H         1 <0>         0.1423
     28 H11        -0.7601   -2.4606    0.9039 H         1 <0>         0.2922
@<TRIPOS>BOND
     1    1   11 1
     2    1   12 1
     3    2    6 1
     4    2   28 1
     5    3   11 2
     6    4    8 1
     7    4   26 1
     8    4   27 1
     9    5    6 ar
    10    5    7 ar
    11    5   11 1
    12    6    9 ar
    13    7   10 ar
    14    7   18 1
    15    8    9 ar
    16    8   10 ar
    17    9   19 1
    18   10   20 1
    19   12   13 ar
    20   12   14 ar
    21   13   15 ar
    22   13   21 1
    23   14   16 ar
    24   14   22 1
    25   15   17 ar
    26   15   23 1
    27   16   17 ar
    28   16   24 1
    29   17   25 1
