@<TRIPOS>MOLECULE
DB06605
   59    63     0     0     0
SMALL
USER_CHARGES

@<TRIPOS>ATOM
      1 O1          1.2267   -0.6140   -0.1479 O.2       1 <0>        -0.2679
      2 O2         -4.5942   -2.6201   -0.1031 O.2       1 <0>        -0.2753
      3 O3          4.4401    5.0705    0.6516 O.2       1 <0>        -0.2687
      4 O4          5.0686   -4.6393   -0.8637 O.3       1 <0>        -0.4951
      5 N1          0.2238    1.5211   -0.0857 N.am      1 <0>        -0.2659
      6 N2         -5.1343   -0.3371    0.0042 N.am      1 <0>        -0.2714
      7 N3          3.8518    0.6972   -0.0471 N.pl3     1 <0>        -0.2266
      8 N4          4.8528    1.5884    0.0870 N.2       1 <0>        -0.1607
      9 N5          6.3589    3.8579    0.4424 N.am      1 <0>        -0.3240
     10 C1          1.6943    3.5352    0.3952 C.3       1 <0>        -0.0070
     11 C2          0.4584    2.9732   -0.3299 C.3       1 <0>         0.0243
     12 C3          2.8179    2.5966    0.2361 C.2       1 <0>         0.0168
     13 C4          2.6084    1.2549    0.0277 C.2       1 <0>         0.1335
     14 C5         -6.1985    0.6524   -0.2360 C.3       1 <0>         0.0198
     15 C6         -7.5567    0.2555    0.3177 C.3       1 <0>        -0.0363
     16 C7         -7.8970   -1.1406   -0.1547 C.3       1 <0>        -0.0433
     17 C8         -6.8514   -2.1001    0.3703 C.3       1 <0>         0.0245
     18 C9          1.3203    0.6085   -0.0687 C.2       1 <0>         0.2696
     19 C10        -1.1387    1.0488   -0.0622 C.ar      1 <0>         0.0367
     20 C11        -3.7677    0.1368   -0.0187 C.ar      1 <0>         0.0364
     21 C12        -5.4188   -1.7140    0.0448 C.2       1 <0>         0.2198
     22 C13         4.2130    2.7494    0.2629 C.2       1 <0>         0.1512
     23 C14        -1.4436   -0.1488    0.5775 C.ar      1 <0>        -0.0385
     24 C15        -2.1384    1.7938   -0.6799 C.ar      1 <0>        -0.0385
     25 C16        -2.7615   -0.6059    0.5994 C.ar      1 <0>        -0.0385
     26 C17        -3.4562    1.3365   -0.6582 C.ar      1 <0>        -0.0385
     27 C18         4.1590   -0.6479   -0.2529 C.ar      1 <0>         0.0664
     28 C19         4.9666    3.9555    0.4551 C.2       1 <0>         0.2619
     29 C20         4.3213   -1.1236   -1.5477 C.ar      1 <0>        -0.0328
     30 C21         4.2985   -1.4944    0.8396 C.ar      1 <0>        -0.0328
     31 C22         4.6281   -2.4689   -1.7536 C.ar      1 <0>        -0.0180
     32 C23         4.6049   -2.8395    0.6338 C.ar      1 <0>        -0.0180
     33 C24         4.7696   -3.3267   -0.6629 C.ar      1 <0>         0.1202
     34 C25         5.1990   -5.4604    0.2959 C.3       1 <0>         0.0788
     35 H1          1.4732    3.6469    1.4636 H         1 <0>         0.0330
     36 H2          1.9298    4.5269   -0.0033 H         1 <0>         0.0330
     37 H3         -0.4000    3.5648    0.0045 H         1 <0>         0.0472
     38 H4          0.5770    3.0938   -1.4142 H         1 <0>         0.0472
     39 H5         -8.3187    0.9681   -0.0163 H         1 <0>         0.0281
     40 H6         -7.5389    0.2868    1.4141 H         1 <0>         0.0281
     41 H7         -6.2744    0.7905   -1.3218 H         1 <0>         0.0469
     42 H8         -5.9242    1.6080    0.2258 H         1 <0>         0.0469
     43 H9         -7.9258   -1.1725   -1.2506 H         1 <0>         0.0270
     44 H10        -8.8887   -1.4321    0.2081 H         1 <0>         0.0270
     45 H11        -7.0410   -3.0971   -0.0442 H         1 <0>         0.0358
     46 H12        -6.9241   -2.1797    1.4618 H         1 <0>         0.0358
     47 H13        -0.7077   -0.7243    1.1290 H         1 <0>         0.0637
     48 H14        -1.9366    2.7111   -1.2241 H         1 <0>         0.0637
     49 H15        -2.9671   -1.5094    1.1645 H         1 <0>         0.0637
     50 H16        -4.2001    1.9312   -1.1797 H         1 <0>         0.0637
     51 H17         4.2129   -0.4653   -2.4060 H         1 <0>         0.0640
     52 H18         4.1718   -1.1257    1.8544 H         1 <0>         0.0640
     53 H19         4.7552   -2.8427   -2.7658 H         1 <0>         0.0655
     54 H20         4.7005   -3.4500    1.5252 H         1 <0>         0.0655
     55 H21         6.8362    2.9740    0.2961 H         1 <0>         0.1453
     56 H22         6.9402    4.6777    0.5811 H         1 <0>         0.1453
     57 H23         6.0312   -5.1339    0.9287 H         1 <0>         0.0660
     58 H24         5.4377   -6.4717   -0.0494 H         1 <0>         0.0660
     59 H25         4.2567   -5.5260    0.8504 H         1 <0>         0.0660
@<TRIPOS>BOND
     1    1   18 2
     2    2   21 2
     3    3   28 2
     4    4   33 1
     5    4   34 1
     6    5   11 1
     7    5   18 am
     8    5   19 1
     9    6   14 1
    10    6   20 1
    11    6   21 am
    12    7    8 1
    13    7   13 2
    14    7   27 1
    15    8   22 1
    16    9   28 am
    17    9   55 1
    18    9   56 1
    19   10   11 1
    20   10   12 1
    21   10   35 1
    22   10   36 1
    23   11   37 1
    24   11   38 1
    25   12   13 1
    26   12   22 2
    27   13   18 1
    28   14   15 1
    29   14   41 1
    30   14   42 1
    31   15   16 1
    32   15   39 1
    33   15   40 1
    34   16   17 1
    35   16   43 1
    36   16   44 1
    37   17   21 1
    38   17   45 1
    39   17   46 1
    40   19   23 ar
    41   19   24 ar
    42   20   25 ar
    43   20   26 ar
    44   22   28 1
    45   23   25 ar
    46   23   47 1
    47   24   26 ar
    48   24   48 1
    49   25   49 1
    50   26   50 1
    51   27   29 ar
    52   27   30 ar
    53   29   31 ar
    54   29   51 1
    55   30   32 ar
    56   30   52 1
    57   31   33 ar
    58   31   53 1
    59   32   33 ar
    60   32   54 1
    61   34   57 1
    62   34   58 1
    63   34   59 1
