@<TRIPOS>MOLECULE
DB06794
   27    27     0     0     0
SMALL
USER_CHARGES

@<TRIPOS>ATOM
      1 Cl1        -0.0006   -2.4567   -0.0012 Cl        1 <0>        -0.0797
      2 O1         -4.0369    1.0501   -0.0028 O.2       1 <0>        -0.2627
      3 O2          4.0370    1.0503   -0.0002 O.2       1 <0>        -0.2627
      4 O3         -6.0109   -0.5888   -0.0031 O.3       1 <0>        -0.4740
      5 O4          6.0110   -0.5884   -0.0011 O.3       1 <0>        -0.4740
      6 O5         -4.5799   -2.3702    0.0032 O.2       1 <0>        -0.2399
      7 O6          4.5803   -2.3700   -0.0022 O.2       1 <0>        -0.2399
      8 N1         -2.4385   -0.6883    0.0012 N.am      1 <0>        -0.2748
      9 N2          2.4386   -0.6883    0.0011 N.am      1 <0>        -0.2748
     10 N3         -0.0012    4.6595   -0.0005 N.1       1 <0>        -0.1909
     11 C1         -1.2079   -0.0237    0.0017 C.ar      1 <0>         0.0553
     12 C2          1.2080   -0.0238    0.0019 C.ar      1 <0>         0.0553
     13 C3          0.0000   -0.7211    0.0023 C.ar      1 <0>         0.0833
     14 C4         -1.2079    1.3712    0.0006 C.ar      1 <0>        -0.0215
     15 C5          1.2081    1.3711    0.0010 C.ar      1 <0>        -0.0215
     16 C6          0.0001    2.0686    0.0004 C.ar      1 <0>         0.0554
     17 C7         -3.7104   -0.1257   -0.0006 C.2       1 <0>         0.3254
     18 C8          3.7106   -0.1255   -0.0003 C.2       1 <0>         0.3254
     19 C9         -0.0007    3.4976   -0.0001 C.1       1 <0>         0.0993
     20 C10        -4.8043   -1.1762   -0.0004 C.2       1 <0>         0.3926
     21 C11         4.8046   -1.1759   -0.0007 C.2       1 <0>         0.3926
     22 H1         -2.1049    1.9744    0.0003 H         1 <0>         0.0649
     23 H2          2.1050    1.9743    0.0007 H         1 <0>         0.0649
     24 H3         -2.3818   -1.7046    0.0022 H         1 <0>         0.1554
     25 H4          2.3822   -1.7045    0.0014 H         1 <0>         0.1554
     26 H5         -6.7420   -1.2428   -0.0025 H         1 <0>         0.2956
     27 H6          6.7422   -1.2424   -0.0021 H         1 <0>         0.2956
@<TRIPOS>BOND
     1    1   13 1
     2    2   17 2
     3    3   18 2
     4    4   20 1
     5    4   26 1
     6    5   21 1
     7    5   27 1
     8    6   20 2
     9    7   21 2
    10    8   11 1
    11    8   17 am
    12    8   24 1
    13    9   12 1
    14    9   18 am
    15    9   25 1
    16   10   19 3
    17   11   13 ar
    18   11   14 ar
    19   12   13 ar
    20   12   15 ar
    21   14   16 ar
    22   14   22 1
    23   15   16 ar
    24   15   23 1
    25   16   19 1
    26   17   20 1
    27   18   21 1
