@<TRIPOS>MOLECULE
DB06701
   36    37     0     0     0
SMALL
USER_CHARGES

@<TRIPOS>ATOM
      1 O1         -0.7800    2.2840    0.4800 O.3       1 <0>        -0.4675
      2 O2         -0.5665    2.6500   -1.7840 O.2       1 <0>        -0.2501
      3 N1          2.0277    0.7865   -0.6228 N.3       1 <0>        -0.3121
      4 C1          0.8997   -0.0058   -0.1169 C.3       1 <0>         0.0246
      5 C2          1.1744   -1.5074   -0.2772 C.3       1 <0>        -0.0364
      6 C3         -0.3677    0.3905   -0.8722 C.3       1 <0>         0.0966
      7 C4          2.4804   -1.9061    0.4046 C.3       1 <0>        -0.0505
      8 C5          3.6246   -1.0164   -0.0686 C.3       1 <0>        -0.0404
      9 C6          3.2717    0.4621    0.0756 C.3       1 <0>        -0.0038
     10 C7         -1.5956   -0.3620   -0.3818 C.ar      1 <0>        -0.0322
     11 C8         -0.5701    1.9007   -0.8157 C.2       1 <0>         0.3158
     12 C9         -1.6954   -0.6758    0.9586 C.ar      1 <0>        -0.0577
     13 C10        -2.5736   -0.7090   -1.2918 C.ar      1 <0>        -0.0577
     14 C11        -2.8210   -1.3662    1.4081 C.ar      1 <0>        -0.0615
     15 C12        -3.6993   -1.3994   -0.8423 C.ar      1 <0>        -0.0615
     16 C13        -3.8229   -1.7279    0.5076 C.ar      1 <0>        -0.0617
     17 C14        -1.0107    3.6822    0.6815 C.3       1 <0>         0.0817
     18 H1          0.8182    0.2344    0.9497 H         1 <0>         0.0472
     19 H2          1.2386   -1.7645   -1.3432 H         1 <0>         0.0281
     20 H3          0.3772   -2.1263    0.1448 H         1 <0>         0.0281
     21 H4         -0.2216    0.1436   -1.9348 H         1 <0>         0.0478
     22 H5          2.7100   -2.9561    0.1927 H         1 <0>         0.0266
     23 H6          2.3689   -1.8131    1.4919 H         1 <0>         0.0266
     24 H7          4.5299   -1.2399    0.5067 H         1 <0>         0.0277
     25 H8          3.8497   -1.2399   -1.1193 H         1 <0>         0.0277
     26 H9          1.8422    1.7815   -0.5028 H         1 <0>         0.1222
     27 H10         3.1919    0.7323    1.1358 H         1 <0>         0.0424
     28 H11         4.0820    1.0658   -0.3473 H         1 <0>         0.0424
     29 H12        -0.9608   -0.3911    1.7019 H         1 <0>         0.0621
     30 H13        -2.4868   -0.4554   -2.3440 H         1 <0>         0.0621
     31 H14        -2.9214   -1.6162    2.4603 H         1 <0>         0.0618
     32 H15        -4.4800   -1.6802   -1.5432 H         1 <0>         0.0618
     33 H16        -4.7002   -2.2637    0.8579 H         1 <0>         0.0618
     34 H17        -1.9097    3.9987    0.1442 H         1 <0>         0.0661
     35 H18        -0.1406    4.2599    0.3555 H         1 <0>         0.0661
     36 H19        -1.1634    3.8505    1.7507 H         1 <0>         0.0661
@<TRIPOS>BOND
     1    1   11 1
     2    1   17 1
     3    2   11 2
     4    3    4 1
     5    3    9 1
     6    3   26 1
     7    4    5 1
     8    4    6 1
     9    4   18 1
    10    5    7 1
    11    5   19 1
    12    5   20 1
    13    6   10 1
    14    6   11 1
    15    6   21 1
    16    7    8 1
    17    7   22 1
    18    7   23 1
    19    8    9 1
    20    8   24 1
    21    8   25 1
    22    9   27 1
    23    9   28 1
    24   10   12 ar
    25   10   13 ar
    26   12   14 ar
    27   12   29 1
    28   13   15 ar
    29   13   30 1
    30   14   16 ar
    31   14   31 1
    32   15   16 ar
    33   15   32 1
    34   16   33 1
    35   17   34 1
    36   17   35 1
    37   17   36 1
