@<TRIPOS>MOLECULE
DB06150
   35    36     0     0     0
SMALL
USER_CHARGES

@<TRIPOS>ATOM
      1 S1         -0.8133    2.6995    0.8779 S.o2      1 <0>         0.0735
      2 O1         -1.6742    3.4677    1.7694 O.2       1 <0>        -0.1499
      3 O2         -0.1148    3.3955   -0.1958 O.2       1 <0>        -0.1499
      4 O3          1.4753   -2.7875    1.2816 O.3       1 <0>        -0.4795
      5 O4          3.5610    0.4887   -1.2462 O.3       1 <0>        -0.4656
      6 N1          0.3252    1.8394    1.8437 N.pl3     1 <0>        -0.1992
      7 N2          1.9578    1.1587    0.2838 N.ar      1 <0>        -0.1785
      8 N3         -4.0871   -1.6616   -1.4922 N.pl3     1 <0>        -0.3580
      9 N4          2.5315   -1.1651    0.0048 N.ar      1 <0>        -0.1595
     10 C1         -1.7753    1.4197    0.1814 C.ar      1 <0>         0.1087
     11 C2         -2.9152    0.9647    0.8442 C.ar      1 <0>        -0.0333
     12 C3         -1.4032    0.8515   -1.0367 C.ar      1 <0>        -0.0333
     13 C4          1.0746    0.7798    1.2241 C.ar      1 <0>         0.1482
     14 C5         -3.3113   -0.6267   -0.9300 C.ar      1 <0>         0.0247
     15 C6         -3.6832   -0.0584    0.2884 C.ar      1 <0>        -0.0392
     16 C7         -2.1714   -0.1717   -1.5924 C.ar      1 <0>        -0.0392
     17 C8          0.8582   -0.5214    1.6108 C.ar      1 <0>         0.0414
     18 C9          1.6251   -1.4648    0.9583 C.ar      1 <0>         0.2222
     19 C10         2.6450    0.1464   -0.2788 C.ar      1 <0>         0.3225
     20 C11         2.2917   -3.7156    0.5771 C.3       1 <0>         0.0804
     21 C12         3.6815    1.8719   -1.5456 C.3       1 <0>         0.0819
     22 H1          0.0119    1.6284    2.8006 H         1 <0>         0.1752
     23 H2         -3.2195    1.3866    1.7978 H         1 <0>         0.0638
     24 H3         -0.5192    1.1889   -1.5703 H         1 <0>         0.0638
     25 H4         -4.5683   -0.4058    0.8153 H         1 <0>         0.0636
     26 H5         -1.8705   -0.6070   -2.5421 H         1 <0>         0.0636
     27 H6          0.1373   -0.7939    2.3714 H         1 <0>         0.0706
     28 H7         -4.9142   -1.9917   -1.0129 H         1 <0>         0.1423
     29 H8         -3.8179   -2.0732   -2.3757 H         1 <0>         0.1423
     30 H9          2.0559   -4.7185    0.9453 H         1 <0>         0.0660
     31 H10         3.3538   -3.5277    0.7671 H         1 <0>         0.0660
     32 H11         2.0771   -3.6914   -0.4965 H         1 <0>         0.0660
     33 H12         4.0166    2.4370   -0.6692 H         1 <0>         0.0661
     34 H13         2.7394    2.2749   -1.9322 H         1 <0>         0.0661
     35 H14         4.4397    1.9830   -2.3265 H         1 <0>         0.0661
@<TRIPOS>BOND
     1    1    2 2
     2    1    3 2
     3    1    6 1
     4    1   10 1
     5    4   18 1
     6    4   20 1
     7    5   19 1
     8    5   21 1
     9    6   13 1
    10    6   22 1
    11    7   13 ar
    12    7   19 ar
    13    8   14 1
    14    8   28 1
    15    8   29 1
    16    9   18 ar
    17    9   19 ar
    18   10   11 ar
    19   10   12 ar
    20   11   15 ar
    21   11   23 1
    22   12   16 ar
    23   12   24 1
    24   13   17 ar
    25   14   15 ar
    26   14   16 ar
    27   15   25 1
    28   16   26 1
    29   17   18 ar
    30   17   27 1
    31   20   30 1
    32   20   31 1
    33   20   32 1
    34   21   33 1
    35   21   34 1
    36   21   35 1
