@<TRIPOS>MOLECULE
DB06201
   25    26     0     0     0
SMALL
USER_CHARGES

@<TRIPOS>ATOM
      1 F1          1.4225    2.1617    0.9864 F         1 <0>        -0.2050
      2 F2          1.9397   -2.4917    0.1998 F         1 <0>        -0.2050
      3 O1         -4.0286    1.8570   -0.2672 O.2       1 <0>        -0.2686
      4 N1         -0.7602   -0.4873    0.8954 N.pl3     1 <0>        -0.2464
      5 N2         -1.2202   -1.6332    0.4015 N.2       1 <0>        -0.0647
      6 N3         -2.4013   -1.3584   -0.1409 N.2       1 <0>        -0.1248
      7 N4         -4.8005   -0.1380   -1.0936 N.am      1 <0>        -0.3240
      8 C1          0.5421   -0.4564    1.5690 C.3       1 <0>         0.0736
      9 C2          1.6542   -0.1720    0.6163 C.ar      1 <0>         0.0442
     10 C3         -1.5932    0.5515    0.7036 C.2       1 <0>         0.0582
     11 C4          2.0425    1.1451    0.3709 C.ar      1 <0>         0.1311
     12 C5          2.3059   -1.2230   -0.0291 C.ar      1 <0>         0.1311
     13 C6         -2.6445   -0.0245    0.0354 C.2       1 <0>         0.1666
     14 C7          3.0824    1.4113   -0.5199 C.ar      1 <0>        -0.0259
     15 C8          3.3457   -0.9567   -0.9200 C.ar      1 <0>        -0.0259
     16 C9          3.7340    0.3604   -1.1653 C.ar      1 <0>        -0.0563
     17 C10        -3.8307    0.6256   -0.4248 C.2       1 <0>         0.2632
     18 H1          0.6746   -1.4206    2.0746 H         1 <0>         0.0561
     19 H2          0.4819    0.3039    2.3571 H         1 <0>         0.0561
     20 H3         -1.3899    1.5600    1.0356 H         1 <0>         0.0850
     21 H4          3.3844    2.4367   -0.7107 H         1 <0>         0.0646
     22 H5          3.8526   -1.7751   -1.4225 H         1 <0>         0.0646
     23 H6          4.5437    0.5677   -1.8588 H         1 <0>         0.0619
     24 H7         -4.6843   -1.1337   -1.2526 H         1 <0>         0.1453
     25 H8         -5.6527    0.2897   -1.4403 H         1 <0>         0.1453
@<TRIPOS>BOND
     1    1   11 1
     2    2   12 1
     3    3   17 2
     4    4    5 1
     5    4    8 1
     6    4   10 2
     7    5    6 1
     8    6   13 2
     9    7   17 am
    10    7   24 1
    11    7   25 1
    12    8    9 1
    13    8   18 1
    14    8   19 1
    15    9   11 ar
    16    9   12 ar
    17   10   13 1
    18   10   20 1
    19   11   14 ar
    20   12   15 ar
    21   13   17 1
    22   14   16 ar
    23   14   21 1
    24   15   16 ar
    25   15   22 1
    26   16   23 1
