@<TRIPOS>MOLECULE
DB06193
   43    45     0     0     0
SMALL
USER_CHARGES

@<TRIPOS>ATOM
      1 O1         -2.7003    1.8460   -0.0189 O.2       1 <0>        -0.2865
      2 O2          2.6383    2.0830    0.0074 O.2       1 <0>        -0.2865
      3 N1         -2.7217   -0.7669   -0.0392 N.pl3     1 <0>        -0.3421
      4 N2          2.8898   -0.5212   -0.0120 N.pl3     1 <0>        -0.3421
      5 N3          0.5315    5.6311    0.0353 N.ar      1 <0>        -0.2625
      6 N4         -5.5601   -3.1319   -0.1165 N.3       1 <0>        -0.3285
      7 N5          5.9250   -2.6287    0.0271 N.3       1 <0>        -0.3285
      8 C1         -0.6707    0.6168   -0.0182 C.ar      1 <0>         0.0556
      9 C2          0.7255    0.6773   -0.0114 C.ar      1 <0>         0.0557
     10 C3         -1.3151   -0.6257   -0.0311 C.ar      1 <0>         0.0389
     11 C4          1.4763   -0.5040   -0.0179 C.ar      1 <0>         0.0389
     12 C5         -1.4759    1.8568   -0.0117 C.2       1 <0>         0.1964
     13 C6          1.4182    1.9826    0.0025 C.2       1 <0>         0.1978
     14 C7         -0.7810    3.1595    0.0047 C.ar      1 <0>         0.0360
     15 C8          0.6091    3.2141    0.0114 C.ar      1 <0>         0.0512
     16 C9         -0.5628   -1.8007   -0.0375 C.ar      1 <0>        -0.0384
     17 C10         0.8295   -1.7400   -0.0309 C.ar      1 <0>        -0.0384
     18 C11        -3.3713   -2.0390   -0.0532 C.3       1 <0>         0.0214
     19 C12         3.6486   -1.7314   -0.0187 C.3       1 <0>         0.0214
     20 C13        -1.5173    4.3436    0.0133 C.ar      1 <0>        -0.0321
     21 C14         1.2150    4.4643    0.0264 C.ar      1 <0>         0.0391
     22 C15        -4.8812   -1.8423   -0.0937 C.3       1 <0>         0.0086
     23 C16         5.1355   -1.4035    0.0252 C.3       1 <0>         0.0086
     24 C17        -0.8169    5.5399    0.0285 C.ar      1 <0>         0.0283
     25 H1         -1.0060   -2.7917   -0.0460 H         1 <0>         0.0637
     26 H2          1.3575   -2.6884   -0.0379 H         1 <0>         0.0637
     27 H3         -3.2836    0.0752   -0.0265 H         1 <0>         0.1461
     28 H4          3.3755    0.3670   -0.0099 H         1 <0>         0.1461
     29 H5         -3.1110   -2.6132    0.8450 H         1 <0>         0.0474
     30 H6         -3.0714   -2.6161   -0.9373 H         1 <0>         0.0474
     31 H7          3.4382   -2.3116   -0.9260 H         1 <0>         0.0474
     32 H8          3.4000   -2.3459    0.8560 H         1 <0>         0.0474
     33 H9         -2.6016    4.3543    0.0087 H         1 <0>         0.0640
     34 H10         2.2939    4.5823    0.0322 H         1 <0>         0.0837
     35 H11        -5.1659   -1.2712   -0.9848 H         1 <0>         0.0437
     36 H12        -5.2152   -1.2698    0.7795 H         1 <0>         0.0437
     37 H13         5.3749   -0.8203    0.9216 H         1 <0>         0.0437
     38 H14         5.4205   -0.7931   -0.8393 H         1 <0>         0.0437
     39 H15        -1.3426    6.4893    0.0358 H         1 <0>         0.0830
     40 H16        -6.5682   -2.9837   -0.0931 H         1 <0>         0.1183
     41 H17        -5.3291   -3.6571    0.7259 H         1 <0>         0.1183
     42 H18         5.7036   -3.1808   -0.8008 H         1 <0>         0.1183
     43 H19         5.6625   -3.2050    0.8259 H         1 <0>         0.1183
@<TRIPOS>BOND
     1    1   12 2
     2    2   13 2
     3    3   10 1
     4    3   18 1
     5    3   27 1
     6    4   11 1
     7    4   19 1
     8    4   28 1
     9    5   21 ar
    10    5   24 ar
    11    6   22 1
    12    6   40 1
    13    6   41 1
    14    7   23 1
    15    7   42 1
    16    7   43 1
    17    8    9 ar
    18    8   10 ar
    19    8   12 1
    20    9   11 ar
    21    9   13 1
    22   10   16 ar
    23   11   17 ar
    24   12   14 1
    25   13   15 1
    26   14   15 ar
    27   14   20 ar
    28   15   21 ar
    29   16   17 ar
    30   16   25 1
    31   17   26 1
    32   18   22 1
    33   18   29 1
    34   18   30 1
    35   19   23 1
    36   19   31 1
    37   19   32 1
    38   20   24 ar
    39   20   33 1
    40   21   34 1
    41   22   35 1
    42   22   36 1
    43   23   37 1
    44   23   38 1
    45   24   39 1
