@<TRIPOS>MOLECULE
DB06777
   68    71     0     0     0
SMALL
USER_CHARGES

@<TRIPOS>ATOM
      1 O1          2.1104    2.4134   -1.1885 O.3       1 <0>        -0.3915
      2 O2          5.6182   -0.7326   -2.7190 O.3       1 <0>        -0.3918
      3 O3         -7.5135   -1.2292    0.8549 O.3       1 <0>        -0.4806
      4 O4         -6.5341    0.7934    1.1809 O.2       1 <0>        -0.2510
      5 C1         -0.2373    1.1080   -0.1833 C.3       1 <0>        -0.0299
      6 C2         -1.2127   -0.0271    0.1949 C.3       1 <0>        -0.0258
      7 C3          1.1197    0.9987    0.5281 C.3       1 <0>        -0.0083
      8 C4          1.7786   -0.3681    0.1392 C.3       1 <0>        -0.0299
      9 C5          3.1817   -0.5576    0.8325 C.3       1 <0>        -0.0258
     10 C6         -2.4482    0.4251   -0.6221 C.3       1 <0>        -0.0328
     11 C7          4.1054    0.6528    0.4696 C.3       1 <0>        -0.0307
     12 C8         -0.5869   -1.3487   -0.2674 C.3       1 <0>        -0.0468
     13 C9          0.8070   -1.5633    0.3481 C.3       1 <0>        -0.0489
     14 C10         2.0418    2.1928    0.2170 C.3       1 <0>         0.0589
     15 C11        -1.0686    2.3734    0.0090 C.3       1 <0>        -0.0491
     16 C12        -2.4923    1.9551   -0.4016 C.3       1 <0>        -0.0492
     17 C13         3.4491    2.0106    0.7925 C.3       1 <0>        -0.0232
     18 C14         3.8913   -1.8748    0.3997 C.3       1 <0>        -0.0448
     19 C15        -1.5423   -0.1049    1.7064 C.3       1 <0>        -0.0590
     20 C16        -3.7686   -0.2583   -0.2971 C.3       1 <0>        -0.0400
     21 C17         4.6066    0.6096   -0.9895 C.3       1 <0>        -0.0234
     22 C18         3.0369   -0.6447    2.3757 C.3       1 <0>        -0.0590
     23 C19         4.3468   -1.8875   -1.0531 C.3       1 <0>        -0.0263
     24 C20         5.2766   -0.7159   -1.3370 C.3       1 <0>         0.0555
     25 C21        -4.9001    0.3330   -1.1627 C.3       1 <0>        -0.0401
     26 C22        -3.6351   -1.7735   -0.4824 C.3       1 <0>        -0.0621
     27 C23        -6.2551   -0.3461   -0.9534 C.3       1 <0>         0.0450
     28 C24        -6.7619   -0.1681    0.4602 C.2       1 <0>         0.3047
     29 H1         -0.0402    1.0315   -1.2655 H         1 <0>         0.0310
     30 H2          0.9463    1.0158    1.6086 H         1 <0>         0.0331
     31 H3          1.9499   -0.3296   -0.9454 H         1 <0>         0.0310
     32 H4         -2.2331    0.2609   -1.6896 H         1 <0>         0.0309
     33 H5          5.0071    0.5868    1.0969 H         1 <0>         0.0308
     34 H6         -0.4917   -1.3605   -1.3609 H         1 <0>         0.0271
     35 H7         -1.1734   -2.2257    0.0031 H         1 <0>         0.0271
     36 H8          0.6951   -1.7824    1.4142 H         1 <0>         0.0268
     37 H9          1.2278   -2.4654   -0.1095 H         1 <0>         0.0268
     38 H10         1.6201    3.1054    0.6556 H         1 <0>         0.0596
     39 H11        -0.7123    3.2061   -0.6045 H         1 <0>         0.0268
     40 H12        -1.0557    2.7049    1.0533 H         1 <0>         0.0268
     41 H13        -3.1971    2.2428    0.3869 H         1 <0>         0.0268
     42 H14        -2.7959    2.4686   -1.3207 H         1 <0>         0.0268
     43 H15         3.3971    2.1258    1.8821 H         1 <0>         0.0293
     44 H16         4.0985    2.8169    0.4288 H         1 <0>         0.0293
     45 H17         3.2574   -2.7470    0.5918 H         1 <0>         0.0271
     46 H18         4.7821   -2.0227    1.0270 H         1 <0>         0.0271
     47 H19        -0.6494   -0.2254    2.3257 H         1 <0>         0.0235
     48 H20        -2.0543    0.7924    2.0680 H         1 <0>         0.0235
     49 H21        -2.1868   -0.9586    1.9366 H         1 <0>         0.0235
     50 H22        -4.0298   -0.0743    0.7514 H         1 <0>         0.0301
     51 H23         3.7938    0.7846   -1.7010 H         1 <0>         0.0293
     52 H24         5.3200    1.4254   -1.1640 H         1 <0>         0.0293
     53 H25         4.0216   -0.6975    2.8556 H         1 <0>         0.0235
     54 H26         2.5223    0.2160    2.8087 H         1 <0>         0.0235
     55 H27         2.4901   -1.5434    2.6788 H         1 <0>         0.0235
     56 H28         4.8688   -2.8276   -1.2704 H         1 <0>         0.0290
     57 H29         3.4849   -1.8709   -1.7309 H         1 <0>         0.0290
     58 H30         6.2056   -0.8256   -0.7663 H         1 <0>         0.0593
     59 H31        -5.0129    1.4041   -0.9583 H         1 <0>         0.0273
     60 H32        -4.6339    0.2426   -2.2235 H         1 <0>         0.0273
     61 H33         1.2845    2.8387   -1.4711 H         1 <0>         0.2098
     62 H34        -3.1474   -2.0301   -1.4282 H         1 <0>         0.0233
     63 H35        -3.1009   -2.2304    0.3512 H         1 <0>         0.0233
     64 H36        -4.5981   -2.2874   -0.4674 H         1 <0>         0.0233
     65 H37         4.7995   -0.6316   -3.2339 H         1 <0>         0.2098
     66 H38        -6.9942    0.1272   -1.6113 H         1 <0>         0.0378
     67 H39        -6.2367   -1.4033   -1.2268 H         1 <0>         0.0378
     68 H40        -7.8421   -1.1225    1.7730 H         1 <0>         0.2951
@<TRIPOS>BOND
     1    1   14 1
     2    1   61 1
     3    2   24 1
     4    2   65 1
     5    3   28 1
     6    3   68 1
     7    4   28 2
     8    5    6 1
     9    5    7 1
    10    5   15 1
    11    5   29 1
    12    6   10 1
    13    6   12 1
    14    6   19 1
    15    7    8 1
    16    7   14 1
    17    7   30 1
    18    8    9 1
    19    8   13 1
    20    8   31 1
    21    9   11 1
    22    9   18 1
    23    9   22 1
    24   10   16 1
    25   10   20 1
    26   10   32 1
    27   11   17 1
    28   11   21 1
    29   11   33 1
    30   12   13 1
    31   12   34 1
    32   12   35 1
    33   13   36 1
    34   13   37 1
    35   14   17 1
    36   14   38 1
    37   15   16 1
    38   15   39 1
    39   15   40 1
    40   16   41 1
    41   16   42 1
    42   17   43 1
    43   17   44 1
    44   18   23 1
    45   18   45 1
    46   18   46 1
    47   19   47 1
    48   19   48 1
    49   19   49 1
    50   20   25 1
    51   20   26 1
    52   20   50 1
    53   21   24 1
    54   21   51 1
    55   21   52 1
    56   22   53 1
    57   22   54 1
    58   22   55 1
    59   23   24 1
    60   23   56 1
    61   23   57 1
    62   24   58 1
    63   25   27 1
    64   25   59 1
    65   25   60 1
    66   26   62 1
    67   26   63 1
    68   26   64 1
    69   27   28 1
    70   27   66 1
    71   27   67 1
