@<TRIPOS>MOLECULE
DB06413
   34    35     0     0     0
SMALL
USER_CHARGES

@<TRIPOS>ATOM
      1 S1         -0.7087    1.6457   -0.6037 S.o       1 <0>         0.0429
      2 O1         -0.4870    2.9594    0.0589 O.2       1 <0>        -0.2558
      3 O2         -3.5935    1.8778   -1.9158 O.2       1 <0>        -0.2750
      4 N1         -4.2432    2.4279    0.2188 N.am      1 <0>        -0.3286
      5 C1          0.2643    0.4117    0.3749 C.3       1 <0>         0.0851
      6 C2          1.7398    0.5736    0.2279 C.ar      1 <0>        -0.0277
      7 C3         -0.2371   -1.0119    0.1372 C.ar      1 <0>        -0.0277
      8 C4         -2.3132    1.0093   -0.0746 C.3       1 <0>         0.1004
      9 C5          2.5746    0.3917    1.3305 C.ar      1 <0>        -0.0571
     10 C6         -0.9104   -1.6537    1.1524 C.ar      1 <0>        -0.0571
     11 C7          2.2848    0.9073   -1.0118 C.ar      1 <0>        -0.0571
     12 C8          0.0026   -1.6020   -1.0836 C.ar      1 <0>        -0.0571
     13 C9          3.9544    0.5435    1.1934 C.ar      1 <0>        -0.0615
     14 C10        -1.3679   -2.9536    0.9357 C.ar      1 <0>        -0.0615
     15 C11         3.6646    1.0591   -1.1492 C.ar      1 <0>        -0.0615
     16 C12        -0.4548   -2.9018   -1.3006 C.ar      1 <0>        -0.0615
     17 C13         4.4994    0.8772   -0.0465 C.ar      1 <0>        -0.0617
     18 C14        -1.1401   -3.5775   -0.2908 C.ar      1 <0>        -0.0617
     19 C15        -3.4301    1.8048   -0.6999 C.2       1 <0>         0.2228
     20 H1          0.0189    0.6903    1.4102 H         1 <0>         0.0535
     21 H2         -2.4685   -0.0112   -0.4312 H         1 <0>         0.0496
     22 H3         -2.3748    1.0305    1.0173 H         1 <0>         0.0496
     23 H4          2.1644    0.1293    2.3022 H         1 <0>         0.0621
     24 H5         -1.0925   -1.1788    2.1114 H         1 <0>         0.0621
     25 H6          1.6722    1.0420   -1.8980 H         1 <0>         0.0621
     26 H7          0.5192   -1.0935   -1.8897 H         1 <0>         0.0621
     27 H8          4.6045    0.4008    2.0516 H         1 <0>         0.0618
     28 H9         -1.9016   -3.4798    1.7217 H         1 <0>         0.0618
     29 H10         4.0897    1.3151   -2.1153 H         1 <0>         0.0618
     30 H11        -0.2807   -3.3865   -2.2568 H         1 <0>         0.0618
     31 H12         5.5738    0.9942   -0.1537 H         1 <0>         0.0618
     32 H13        -1.4972   -4.5892   -0.4601 H         1 <0>         0.0618
     33 H14        -5.0314    2.9911   -0.0830 H         1 <0>         0.1450
     34 H15        -4.0945    2.3574    1.2202 H         1 <0>         0.1450
@<TRIPOS>BOND
     1    1    2 2
     2    1    5 1
     3    1    8 1
     4    3   19 2
     5    4   19 am
     6    4   33 1
     7    4   34 1
     8    5    6 1
     9    5    7 1
    10    5   20 1
    11    6    9 ar
    12    6   11 ar
    13    7   10 ar
    14    7   12 ar
    15    8   19 1
    16    8   21 1
    17    8   22 1
    18    9   13 ar
    19    9   23 1
    20   10   14 ar
    21   10   24 1
    22   11   15 ar
    23   11   25 1
    24   12   16 ar
    25   12   26 1
    26   13   17 ar
    27   13   27 1
    28   14   18 ar
    29   14   28 1
    30   15   17 ar
    31   15   29 1
    32   16   18 ar
    33   16   30 1
    34   17   31 1
    35   18   32 1
