@<TRIPOS>MOLECULE
DB06782
   14    13     0     0     0
SMALL
USER_CHARGES

@<TRIPOS>ATOM
      1 S1         -0.4472    1.8919   -0.3715 S.3       1 <0>        -0.1718
      2 S2          2.6272    0.5331   -0.6912 S.3       1 <0>        -0.1771
      3 O1         -2.5217   -0.3414   -0.4093 O.3       1 <0>        -0.3939
      4 C1         -0.1376    0.0869   -0.5092 C.3       1 <0>         0.0341
      5 C2          1.2142   -0.2916    0.1100 C.3       1 <0>         0.0044
      6 C3         -1.2735   -0.6660    0.1919 C.3       1 <0>         0.0565
      7 H1         -0.1539   -0.1538   -1.5785 H         1 <0>         0.0440
      8 H2          1.3728   -1.3718    0.0184 H         1 <0>         0.0385
      9 H3          1.2396   -0.0519    1.1792 H         1 <0>         0.0385
     10 H4         -1.3283   -0.4348    1.2618 H         1 <0>         0.0568
     11 H5         -1.1314   -1.7472    0.0924 H         1 <0>         0.0568
     12 H6         -0.3982    1.9576    0.9673 H         1 <0>         0.1020
     13 H7          3.5803   -0.0309    0.0649 H         1 <0>         0.1017
     14 H8         -2.6423    0.6198   -0.3261 H         1 <0>         0.2094
@<TRIPOS>BOND
     1    1    4 1
     2    1   12 1
     3    2    5 1
     4    2   13 1
     5    3    6 1
     6    3   14 1
     7    4    5 1
     8    4    6 1
     9    4    7 1
    10    5    8 1
    11    5    9 1
    12    6   10 1
    13    6   11 1
