@<TRIPOS>MOLECULE
DB06616
   65    68     0     0     0
SMALL
USER_CHARGES

@<TRIPOS>ATOM
      1 Cl1        -4.4109    2.8351   -2.8346 Cl        1 <0>        -0.0816
      2 Cl2        -7.3582    4.1439    1.4576 Cl        1 <0>        -0.0797
      3 O1          1.7841   -2.4679   -0.5374 O.3       1 <0>        -0.4882
      4 O2          1.0749    0.1350   -1.2210 O.3       1 <0>        -0.4914
      5 O3         -6.6272    1.3905    2.4165 O.3       1 <0>        -0.4936
      6 N1          4.6317   -0.5649    0.0622 N.3       1 <0>        -0.2998
      7 N2          5.9131    2.0077    0.3750 N.3       1 <0>        -0.3029
      8 N3         -3.9968    0.1940   -1.3907 N.pl3     1 <0>        -0.3117
      9 N4         -2.8121   -3.7032   -0.3622 N.ar      1 <0>        -0.2535
     10 N5         -7.0887   -1.6186   -1.0236 N.1       1 <0>        -0.1908
     11 C1          4.9384    0.2801   -1.0984 C.3       1 <0>         0.0117
     12 C2          5.5945   -0.3195    1.1429 C.3       1 <0>         0.0117
     13 C3          4.9507    1.7614   -0.7060 C.3       1 <0>         0.0114
     14 C4          5.6084    1.1618    1.5355 C.3       1 <0>         0.0114
     15 C5          4.6208   -1.9776   -0.3124 C.3       1 <0>         0.0021
     16 C6          3.8122   -2.7867    0.6964 C.3       1 <0>        -0.0058
     17 C7          5.9221    3.4203    0.7502 C.3       1 <0>        -0.0127
     18 C8          2.3631   -2.3223    0.7520 C.3       1 <0>         0.0909
     19 C9          0.4672   -2.1108   -0.6682 C.ar      1 <0>         0.1639
     20 C10         0.1180   -0.8102   -1.0100 C.ar      1 <0>         0.1622
     21 C11        -2.2260   -1.4338   -0.9226 C.ar      1 <0>         0.0265
     22 C12        -0.5276   -3.0682   -0.4545 C.ar      1 <0>         0.0097
     23 C13        -1.8790   -2.7562   -0.5751 C.ar      1 <0>         0.0765
     24 C14        -1.2258   -0.4705   -1.1374 C.ar      1 <0>        -0.0053
     25 C15        -3.5863   -1.1192   -1.0442 C.ar      1 <0>         0.0598
     26 C16        -4.5502   -2.0928   -0.8255 C.ar      1 <0>         0.0915
     27 C17        -4.1140   -3.3585   -0.4895 C.ar      1 <0>         0.0474
     28 C18        -4.7914    1.1418   -0.7289 C.ar      1 <0>         0.0535
     29 C19        -5.3249    0.8148    0.5178 C.ar      1 <0>         0.0041
     30 C20         0.6280    1.4446   -1.5681 C.3       1 <0>         0.0790
     31 C21        -5.0520    2.3904   -1.2933 C.ar      1 <0>         0.0637
     32 C22        -6.1190    1.7367    1.1998 C.ar      1 <0>         0.1402
     33 C23        -5.9512   -1.8312   -0.9347 C.1       1 <0>         0.1026
     34 C24        -5.8460    3.3123   -0.6111 C.ar      1 <0>        -0.0197
     35 C25        -6.3795    2.9853    0.6355 C.ar      1 <0>         0.0840
     36 C26        -6.3036    0.0917    2.9075 C.3       1 <0>         0.0789
     37 H1          4.1745    0.1401   -1.8730 H         1 <0>         0.0439
     38 H2          5.9062    0.0040   -1.5383 H         1 <0>         0.0439
     39 H3          6.6063   -0.6274    0.8454 H         1 <0>         0.0439
     40 H4          5.3313   -0.8923    2.0384 H         1 <0>         0.0439
     41 H5          3.9400    2.0725   -0.4085 H         1 <0>         0.0439
     42 H6          5.2266    2.3499   -1.5894 H         1 <0>         0.0439
     43 H7          6.3719    1.3066    2.3094 H         1 <0>         0.0439
     44 H8          4.6400    1.4354    1.9763 H         1 <0>         0.0439
     45 H9          4.1669   -2.1088   -1.3032 H         1 <0>         0.0428
     46 H10         5.6382   -2.3817   -0.3926 H         1 <0>         0.0428
     47 H11         4.2549   -2.7554    1.6969 H         1 <0>         0.0310
     48 H12         3.8346   -3.8359    0.3753 H         1 <0>         0.0310
     49 H13         6.1944    4.0441   -0.1082 H         1 <0>         0.0391
     50 H14         6.6735    3.6073    1.5254 H         1 <0>         0.0391
     51 H15         4.9486    3.7561    1.1255 H         1 <0>         0.0391
     52 H16         1.8169   -2.9488    1.4679 H         1 <0>         0.0697
     53 H17         2.2878   -1.2821    1.0897 H         1 <0>         0.0697
     54 H18        -0.2350   -4.0829   -0.1881 H         1 <0>         0.0677
     55 H19        -1.5333    0.5361   -1.3941 H         1 <0>         0.0662
     56 H20        -3.5162    0.5639   -2.2059 H         1 <0>         0.1522
     57 H21        -4.8108   -4.1708   -0.3033 H         1 <0>         0.0843
     58 H22        -5.0539   -0.1348    0.9582 H         1 <0>         0.0674
     59 H23         1.5217    2.0632   -1.7020 H         1 <0>         0.0660
     60 H24         0.0462    1.9005   -0.7598 H         1 <0>         0.0660
     61 H25         0.0941    1.4500   -2.5245 H         1 <0>         0.0660
     62 H26        -6.0496    4.2865   -1.0508 H         1 <0>         0.0648
     63 H27        -6.7003   -0.6991    2.2615 H         1 <0>         0.0660
     64 H28        -5.2297   -0.0148    3.0963 H         1 <0>         0.0660
     65 H29        -6.8031   -0.0167    3.8762 H         1 <0>         0.0660
@<TRIPOS>BOND
     1    1   31 1
     2    2   35 1
     3    3   18 1
     4    3   19 1
     5    4   20 1
     6    4   30 1
     7    5   32 1
     8    5   36 1
     9    6   11 1
    10    6   12 1
    11    6   15 1
    12    7   13 1
    13    7   14 1
    14    7   17 1
    15    8   25 1
    16    8   28 1
    17    8   56 1
    18    9   23 ar
    19    9   27 ar
    20   10   33 3
    21   11   13 1
    22   11   37 1
    23   11   38 1
    24   12   14 1
    25   12   39 1
    26   12   40 1
    27   13   41 1
    28   13   42 1
    29   14   43 1
    30   14   44 1
    31   15   16 1
    32   15   45 1
    33   15   46 1
    34   16   18 1
    35   16   47 1
    36   16   48 1
    37   17   49 1
    38   17   50 1
    39   17   51 1
    40   18   52 1
    41   18   53 1
    42   19   20 ar
    43   19   22 ar
    44   20   24 ar
    45   21   23 ar
    46   21   24 ar
    47   21   25 ar
    48   22   23 ar
    49   22   54 1
    50   24   55 1
    51   25   26 ar
    52   26   27 ar
    53   26   33 1
    54   27   57 1
    55   28   29 ar
    56   28   31 ar
    57   29   32 ar
    58   29   58 1
    59   30   59 1
    60   30   60 1
    61   30   61 1
    62   31   34 ar
    63   32   35 ar
    64   34   35 ar
    65   34   62 1
    66   36   63 1
    67   36   64 1
    68   36   65 1
