@<TRIPOS>MOLECULE
DB06789
   71    74     0     0     0
SMALL
USER_CHARGES

@<TRIPOS>ATOM
      1 O1          2.5866   -1.0023    0.6085 O.3       1 <0>        -0.4498
      2 O2          3.3826   -3.6035   -1.2127 O.2       1 <0>        -0.2934
      3 O3         -6.1550    3.0680    1.5364 O.2       1 <0>        -0.2927
      4 O4          4.7105   -1.3152   -0.2354 O.2       1 <0>        -0.2508
      5 C1          0.4949   -1.8078   -0.3885 C.3       1 <0>         0.0179
      6 C2          0.1848   -0.4034   -0.9564 C.3       1 <0>        -0.0283
      7 C3         -1.3172   -0.1344   -1.1108 C.3       1 <0>        -0.0337
      8 C4         -2.0017   -0.2613    0.2858 C.3       1 <0>        -0.0288
      9 C5          2.0438   -1.7781   -0.4556 C.3       1 <0>         0.1759
     10 C6         -0.1274   -1.8842    1.0153 C.3       1 <0>        -0.0430
     11 C7         -3.5500    0.0376    0.2385 C.3       1 <0>        -0.0072
     12 C8          1.0738   -0.3163   -2.1938 C.3       1 <0>        -0.0453
     13 C9         -1.6399   -1.5987    0.9868 C.3       1 <0>        -0.0485
     14 C10         2.3519   -1.0860   -1.8022 C.3       1 <0>        -0.0050
     15 C11        -1.5788    1.2581   -1.6992 C.3       1 <0>        -0.0459
     16 C12        -0.0585   -2.9641   -1.2667 C.3       1 <0>        -0.0552
     17 C13        -3.7950    1.3538   -0.5104 C.2       1 <0>        -0.0601
     18 C14        -3.0721    1.5312   -1.8246 C.3       1 <0>        -0.0305
     19 C15        -4.0705    0.1530    1.7010 C.3       1 <0>        -0.0367
     20 C16        -4.3329   -1.0819   -0.4844 C.3       1 <0>        -0.0556
     21 C17         2.6843   -3.1273   -0.3190 C.2       1 <0>         0.1741
     22 C18        -5.4427    0.7991    1.8108 C.3       1 <0>         0.0107
     23 C19        -4.6185    2.3227   -0.0767 C.2       1 <0>        -0.0194
     24 C20        -5.4424    2.1474    1.1412 C.2       1 <0>         0.1561
     25 C21         2.4329   -3.8688    0.9659 C.3       1 <0>        -0.0020
     26 C22         3.9468   -0.8481    0.5985 C.2       1 <0>         0.3080
     27 C23         4.3574    0.0225    1.7654 C.3       1 <0>         0.0450
     28 C24         3.6594    1.3824    1.7770 C.3       1 <0>        -0.0430
     29 C25         3.9469    2.1989    0.5132 C.3       1 <0>        -0.0528
     30 C26         3.2634    3.5653    0.5698 C.3       1 <0>        -0.0559
     31 C27         3.5810    4.3987   -0.6616 C.3       1 <0>        -0.0653
     32 H1          0.5669    0.3532   -0.2512 H         1 <0>         0.0310
     33 H2         -1.7460   -0.8678   -1.8020 H         1 <0>         0.0307
     34 H3         -1.5528    0.5279    0.9111 H         1 <0>         0.0312
     35 H4          0.3431   -1.1571    1.6885 H         1 <0>         0.0272
     36 H5          0.0200   -2.8685    1.4679 H         1 <0>         0.0272
     37 H6          1.3021    0.7217   -2.4575 H         1 <0>         0.0270
     38 H7          0.5976   -0.7812   -3.0644 H         1 <0>         0.0270
     39 H8         -1.9922   -1.5836    2.0242 H         1 <0>         0.0268
     40 H9         -2.1526   -2.4347    0.5012 H         1 <0>         0.0268
     41 H10         3.1736   -0.3659   -1.7679 H         1 <0>         0.0308
     42 H11         2.5813   -1.7949   -2.6056 H         1 <0>         0.0308
     43 H12        -1.1132    2.0280   -1.0703 H         1 <0>         0.0271
     44 H13        -1.1226    1.3410   -2.6924 H         1 <0>         0.0271
     45 H14         0.4089   -2.9985   -2.2561 H         1 <0>         0.0237
     46 H15        -1.1363   -2.8911   -1.4325 H         1 <0>         0.0237
     47 H16         0.1116   -3.9383   -0.7979 H         1 <0>         0.0237
     48 H17        -3.2104    2.5443   -2.2220 H         1 <0>         0.0310
     49 H18        -3.5086    0.8496   -2.5651 H         1 <0>         0.0310
     50 H19        -3.3655    0.7529    2.2937 H         1 <0>         0.0278
     51 H20        -4.1134   -0.8342    2.1766 H         1 <0>         0.0278
     52 H21        -3.9204   -1.3050   -1.4733 H         1 <0>         0.0238
     53 H22        -5.3832   -0.8059   -0.6345 H         1 <0>         0.0238
     54 H23        -4.3283   -2.0136    0.0909 H         1 <0>         0.0238
     55 H24        -6.2222    0.1799    1.3560 H         1 <0>         0.0345
     56 H25        -5.6909    0.9365    2.8690 H         1 <0>         0.0345
     57 H26        -4.7566    3.2468   -0.6283 H         1 <0>         0.0652
     58 H27         3.2743   -4.5460    1.1456 H         1 <0>         0.0307
     59 H28         1.5235   -4.4663    0.8916 H         1 <0>         0.0307
     60 H29         2.3787   -3.1929    1.8216 H         1 <0>         0.0307
     61 H30         5.4435    0.1625    1.7164 H         1 <0>         0.0377
     62 H31         4.1451   -0.5261    2.6898 H         1 <0>         0.0377
     63 H32         3.9983    1.9410    2.6579 H         1 <0>         0.0270
     64 H33         2.5763    1.2479    1.8851 H         1 <0>         0.0270
     65 H34         5.0300    2.3326    0.4036 H         1 <0>         0.0265
     66 H35         3.5954    1.6619   -0.3747 H         1 <0>         0.0265
     67 H36         2.1777    3.4347    0.6474 H         1 <0>         0.0263
     68 H37         3.5900    4.1091    1.4638 H         1 <0>         0.0263
     69 H38         4.6578    4.5751   -0.7493 H         1 <0>         0.0230
     70 H39         3.2393    3.8973   -1.5728 H         1 <0>         0.0230
     71 H40         3.0814    5.3705   -0.6008 H         1 <0>         0.0230
@<TRIPOS>BOND
     1    1    9 1
     2    1   26 1
     3    2   21 2
     4    3   24 2
     5    4   26 2
     6    5    6 1
     7    5    9 1
     8    5   10 1
     9    5   16 1
    10    6    7 1
    11    6   12 1
    12    6   32 1
    13    7    8 1
    14    7   15 1
    15    7   33 1
    16    8   11 1
    17    8   13 1
    18    8   34 1
    19    9   14 1
    20    9   21 1
    21   10   13 1
    22   10   35 1
    23   10   36 1
    24   11   17 1
    25   11   19 1
    26   11   20 1
    27   12   14 1
    28   12   37 1
    29   12   38 1
    30   13   39 1
    31   13   40 1
    32   14   41 1
    33   14   42 1
    34   15   18 1
    35   15   43 1
    36   15   44 1
    37   16   45 1
    38   16   46 1
    39   16   47 1
    40   17   18 1
    41   17   23 2
    42   18   48 1
    43   18   49 1
    44   19   22 1
    45   19   50 1
    46   19   51 1
    47   20   52 1
    48   20   53 1
    49   20   54 1
    50   21   25 1
    51   22   24 1
    52   22   55 1
    53   22   56 1
    54   23   24 1
    55   23   57 1
    56   25   58 1
    57   25   59 1
    58   25   60 1
    59   26   27 1
    60   27   28 1
    61   27   61 1
    62   27   62 1
    63   28   29 1
    64   28   63 1
    65   28   64 1
    66   29   30 1
    67   29   65 1
    68   29   66 1
    69   30   31 1
    70   30   67 1
    71   30   68 1
    72   31   69 1
    73   31   70 1
    74   31   71 1
