@<TRIPOS>MOLECULE
DB06787
   56    58     0     0     0
SMALL
USER_CHARGES

@<TRIPOS>ATOM
      1 O1         -0.5569    0.7475    1.7642 O.3       1 <0>        -0.3824
      2 N1          4.2115   -0.0052    0.0937 N.4       1 <0>         0.2408
      3 N2          1.3458    0.3406   -0.4208 N.3       1 <0>        -0.2893
      4 C1         -1.3009   -0.8995    0.2204 C.3       1 <0>        -0.0067
      5 C2         -1.0107    0.5878    0.4129 C.3       1 <0>         0.1063
      6 C3          0.1023    1.1024   -0.5300 C.3       1 <0>         0.0326
      7 C4         -2.3322   -1.3878    1.2466 C.3       1 <0>        -0.0472
      8 C5         -1.7805   -1.1774   -1.2108 C.3       1 <0>        -0.0472
      9 C6          3.6243    0.0113   -1.3194 C.3       1 <0>        -0.0175
     10 C7          3.1368   -0.4389    1.0931 C.3       1 <0>        -0.0175
     11 C8          2.3387    0.8323   -1.3813 C.3       1 <0>         0.0395
     12 C9          1.8678    0.3977    0.9483 C.3       1 <0>         0.0395
     13 C10        -2.6790   -2.8606    1.0405 C.3       1 <0>        -0.0527
     14 C11        -2.1282   -2.6504   -1.4129 C.3       1 <0>        -0.0527
     15 C12        -3.1469   -3.1343   -0.3855 C.3       1 <0>        -0.0530
     16 C13        -2.2748    1.4275    0.2011 C.ar      1 <0>        -0.0146
     17 C14         5.3515   -1.0285    0.1331 C.3       1 <0>        -0.0414
     18 C15         4.8041    1.3529    0.4668 C.3       1 <0>        -0.0414
     19 C16        -3.0801    1.6867    1.2850 C.ar      1 <0>        -0.0558
     20 C17        -2.5527    1.8885   -1.0642 C.ar      1 <0>        -0.0558
     21 C18        -4.2308    2.4513    1.0923 C.ar      1 <0>        -0.0614
     22 C19        -3.7033    2.6532   -1.2567 C.ar      1 <0>        -0.0614
     23 C20        -4.5422    2.9345   -0.1782 C.ar      1 <0>        -0.0617
     24 H1         -0.3890   -1.4849    0.4001 H         1 <0>         0.0332
     25 H2          0.3042    2.1616   -0.3103 H         1 <0>         0.0458
     26 H3         -0.1835    1.0489   -1.5820 H         1 <0>         0.0458
     27 H4         -3.2774   -0.8442    1.1642 H         1 <0>         0.0269
     28 H5         -1.9635   -1.2563    2.2702 H         1 <0>         0.0269
     29 H6         -1.0175   -0.9125   -1.9492 H         1 <0>         0.0269
     30 H7         -2.6881   -0.6186   -1.4539 H         1 <0>         0.0269
     31 H8          3.4245   -1.0303   -1.6007 H         1 <0>         0.0828
     32 H9          4.3877    0.4165   -1.9932 H         1 <0>         0.0828
     33 H10         3.5626   -0.3488    2.0992 H         1 <0>         0.0828
     34 H11         2.9229   -1.4976    0.8968 H         1 <0>         0.0828
     35 H12         2.5527    1.8964   -1.2230 H         1 <0>         0.0479
     36 H13         1.9406    0.7412   -2.3997 H         1 <0>         0.0479
     37 H14         1.2370   -0.1338    1.6567 H         1 <0>         0.0479
     38 H15         2.0252    1.4242    1.2982 H         1 <0>         0.0479
     39 H16        -3.4609   -3.1588    1.7480 H         1 <0>         0.0265
     40 H17        -1.7983   -3.4767    1.2605 H         1 <0>         0.0265
     41 H18        -1.2157   -3.2543   -1.3346 H         1 <0>         0.0265
     42 H19        -2.5244   -2.8018   -2.4235 H         1 <0>         0.0265
     43 H20        -3.3212   -4.2081   -0.5166 H         1 <0>         0.0265
     44 H21        -4.1064   -2.6313   -0.5578 H         1 <0>         0.0265
     45 H22         5.7633   -1.0472    1.1465 H         1 <0>         0.0778
     46 H23         4.9493   -2.0107   -0.1328 H         1 <0>         0.0778
     47 H24         6.1150   -0.7217   -0.5882 H         1 <0>         0.0778
     48 H25         5.2387    1.2748    1.4679 H         1 <0>         0.0778
     49 H26         5.5774    1.6038   -0.2654 H         1 <0>         0.0778
     50 H27         4.0193    2.1112    0.4587 H         1 <0>         0.0778
     51 H28        -0.4337    1.6979    1.9333 H         1 <0>         0.2107
     52 H29        -2.8642    1.3244    2.2848 H         1 <0>         0.0621
     53 H30        -1.9655    1.6830   -1.9484 H         1 <0>         0.0621
     54 H31        -4.8847    2.6700    1.9316 H         1 <0>         0.0618
     55 H32        -3.9509    3.0239   -2.2471 H         1 <0>         0.0618
     56 H33        -5.4391    3.5283   -0.3286 H         1 <0>         0.0618
@<TRIPOS>BOND
     1    1    5 1
     2    1   51 1
     3    2    9 1
     4    2   10 1
     5    2   17 1
     6    2   18 1
     7    3    6 1
     8    3   11 1
     9    3   12 1
    10    4    5 1
    11    4    7 1
    12    4    8 1
    13    4   24 1
    14    5    6 1
    15    5   16 1
    16    6   25 1
    17    6   26 1
    18    7   13 1
    19    7   27 1
    20    7   28 1
    21    8   14 1
    22    8   29 1
    23    8   30 1
    24    9   11 1
    25    9   31 1
    26    9   32 1
    27   10   12 1
    28   10   33 1
    29   10   34 1
    30   11   35 1
    31   11   36 1
    32   12   37 1
    33   12   38 1
    34   13   15 1
    35   13   39 1
    36   13   40 1
    37   14   15 1
    38   14   41 1
    39   14   42 1
    40   15   43 1
    41   15   44 1
    42   16   19 ar
    43   16   20 ar
    44   17   45 1
    45   17   46 1
    46   17   47 1
    47   18   48 1
    48   18   49 1
    49   18   50 1
    50   19   21 ar
    51   19   52 1
    52   20   22 ar
    53   20   53 1
    54   21   23 ar
    55   21   54 1
    56   22   23 ar
    57   22   55 1
    58   23   56 1
