@<TRIPOS>MOLECULE
DB06412
   56    59     0     0     0
SMALL
USER_CHARGES

@<TRIPOS>ATOM
      1 O1         -4.9363   -1.3328    0.4726 O.3       1 <0>        -0.3883
      2 O2          5.8716    0.6367   -1.0701 O.2       1 <0>        -0.2923
      3 O3          6.4528   -1.7516   -0.0287 O.3       1 <0>        -0.5139
      4 C1         -1.9588    0.6639   -0.2551 C.3       1 <0>        -0.0298
      5 C2         -2.5644   -0.6659    0.2436 C.3       1 <0>        -0.0004
      6 C3         -0.5116    0.8785    0.2090 C.3       1 <0>        -0.0343
      7 C4          0.3695   -0.2985   -0.3178 C.3       1 <0>        -0.0319
      8 C5          1.8834   -0.1282    0.0844 C.3       1 <0>        -0.0216
      9 C6         -4.0293   -0.5267   -0.2761 C.3       1 <0>         0.0689
     10 C7         -1.7235   -1.8112   -0.3435 C.3       1 <0>        -0.0445
     11 C8         -0.2361   -1.6832    0.0345 C.3       1 <0>        -0.0488
     12 C9          2.3640    1.2642   -0.4383 C.3       1 <0>        -0.0281
     13 C10        -3.0080    1.7011    0.1323 C.3       1 <0>        -0.0468
     14 C11         0.0331    2.2297   -0.2740 C.3       1 <0>        -0.0494
     15 C12        -4.3541    0.9692   -0.0223 C.3       1 <0>        -0.0235
     16 C13         1.5030    2.4205    0.0854 C.3       1 <0>        -0.0490
     17 C14        -2.5765   -0.7979    1.7948 C.3       1 <0>        -0.0567
     18 C15         2.7525   -1.2064   -0.6253 C.3       1 <0>        -0.0156
     19 C16         2.0719   -0.2683    1.6168 C.3       1 <0>        -0.0587
     20 C17         3.8476    1.5351   -0.1617 C.3       1 <0>         0.0136
     21 C18        -4.2471   -0.8783   -1.7531 C.3       1 <0>        -0.0356
     22 C19         4.2302   -0.9784   -0.4803 C.2       1 <0>         0.0295
     23 C20         4.7424    0.4119   -0.6389 C.2       1 <0>         0.1624
     24 C21         5.1120   -1.9444   -0.1908 C.2       1 <0>         0.0873
     25 H1         -1.9291    0.6509   -1.3554 H         1 <0>         0.0310
     26 H2         -0.4891    0.8946    1.3035 H         1 <0>         0.0306
     27 H3          0.3346   -0.2396   -1.4176 H         1 <0>         0.0309
     28 H4         -1.7849   -1.8146   -1.4383 H         1 <0>         0.0272
     29 H5         -2.1077   -2.7815   -0.0072 H         1 <0>         0.0272
     30 H6         -0.1163   -1.8979    1.1002 H         1 <0>         0.0268
     31 H7          0.3065   -2.4720   -0.4984 H         1 <0>         0.0268
     32 H8          2.2498    1.2550   -1.5338 H         1 <0>         0.0310
     33 H9         -2.9633    2.5865   -0.5102 H         1 <0>         0.0269
     34 H10        -2.8754    2.0380    1.1666 H         1 <0>         0.0269
     35 H11        -0.5458    3.0497    0.1665 H         1 <0>         0.0268
     36 H12        -0.0835    2.3107   -1.3624 H         1 <0>         0.0268
     37 H13        -4.9640    1.1205    0.8760 H         1 <0>         0.0293
     38 H14        -4.9216    1.4019   -0.8547 H         1 <0>         0.0293
     39 H15         1.8503    3.3668   -0.3474 H         1 <0>         0.0268
     40 H16         1.6093    2.5206    1.1719 H         1 <0>         0.0268
     41 H17        -1.5796   -0.7257    2.2369 H         1 <0>         0.0236
     42 H18        -3.1853   -0.0271    2.2780 H         1 <0>         0.0236
     43 H19        -2.9803   -1.7717    2.0961 H         1 <0>         0.0236
     44 H20         2.5188   -1.2179   -1.6983 H         1 <0>         0.0321
     45 H21         2.4998   -2.2025   -0.2420 H         1 <0>         0.0321
     46 H22         3.1098   -0.1074    1.9239 H         1 <0>         0.0235
     47 H23         1.4627    0.4428    2.1805 H         1 <0>         0.0235
     48 H24         1.8054   -1.2731    1.9602 H         1 <0>         0.0235
     49 H25         4.0419    1.7010    0.9033 H         1 <0>         0.0348
     50 H26         4.1475    2.4463   -0.6940 H         1 <0>         0.0348
     51 H27        -5.2915   -0.7005   -2.0369 H         1 <0>         0.0257
     52 H28        -3.6123   -0.2986   -2.4285 H         1 <0>         0.0257
     53 H29        -4.0692   -1.9447   -1.9306 H         1 <0>         0.0257
     54 H30        -5.0451   -0.9562    1.3611 H         1 <0>         0.2102
     55 H31         4.8505   -2.9834   -0.0507 H         1 <0>         0.1024
     56 H32         6.6689   -0.8100   -0.1157 H         1 <0>         0.2912
@<TRIPOS>BOND
     1    1    9 1
     2    1   54 1
     3    2   23 2
     4    3   24 1
     5    3   56 1
     6    4    5 1
     7    4    6 1
     8    4   13 1
     9    4   25 1
    10    5    9 1
    11    5   10 1
    12    5   17 1
    13    6    7 1
    14    6   14 1
    15    6   26 1
    16    7    8 1
    17    7   11 1
    18    7   27 1
    19    8   12 1
    20    8   18 1
    21    8   19 1
    22    9   15 1
    23    9   21 1
    24   10   11 1
    25   10   28 1
    26   10   29 1
    27   11   30 1
    28   11   31 1
    29   12   16 1
    30   12   20 1
    31   12   32 1
    32   13   15 1
    33   13   33 1
    34   13   34 1
    35   14   16 1
    36   14   35 1
    37   14   36 1
    38   15   37 1
    39   15   38 1
    40   16   39 1
    41   16   40 1
    42   17   41 1
    43   17   42 1
    44   17   43 1
    45   18   22 1
    46   18   44 1
    47   18   45 1
    48   19   46 1
    49   19   47 1
    50   19   48 1
    51   20   23 1
    52   20   49 1
    53   20   50 1
    54   21   51 1
    55   21   52 1
    56   21   53 1
    57   22   23 1
    58   22   24 2
    59   24   55 1
