@<TRIPOS>MOLECULE
DB06710
   52    55     0     0     0
SMALL
USER_CHARGES

@<TRIPOS>ATOM
      1 O1          4.6147   -1.0395   -0.4271 O.3       1 <0>        -0.3883
      2 O2         -5.9976    0.3021    1.6223 O.2       1 <0>        -0.2927
      3 C1          2.2135   -0.5185   -0.2604 C.3       1 <0>        -0.0004
      4 C2          1.5040    0.7647    0.2224 C.3       1 <0>        -0.0298
      5 C3          0.0598    0.8800   -0.2834 C.3       1 <0>        -0.0337
      6 C4         -0.7552   -0.3531    0.2175 C.3       1 <0>        -0.0288
      7 C5          3.6500   -0.2820    0.3003 C.3       1 <0>         0.0689
      8 C6          1.4357   -1.7212    0.2993 C.3       1 <0>        -0.0445
      9 C7         -2.2703   -0.3048   -0.2195 C.3       1 <0>        -0.0072
     10 C8          2.4901    1.8725   -0.1341 C.3       1 <0>        -0.0468
     11 C9         -0.0454   -1.6925   -0.1208 C.3       1 <0>        -0.0486
     12 C10         3.8783    1.2344    0.0585 C.3       1 <0>        -0.0235
     13 C11        -0.5999    2.1776    0.2017 C.3       1 <0>        -0.0459
     14 C12         2.2786   -0.6443   -1.8111 C.3       1 <0>        -0.0567
     15 C13        -2.8583    1.0705    0.1219 C.2       1 <0>        -0.0601
     16 C14        -2.0417    2.2759   -0.2795 C.3       1 <0>        -0.0305
     17 C15        -3.0375   -1.4179    0.5521 C.3       1 <0>        -0.0367
     18 C16         3.8436   -0.6300    1.7817 C.3       1 <0>        -0.0356
     19 C17        -2.4418   -0.5391   -1.7375 C.3       1 <0>        -0.0556
     20 C18        -4.5488   -1.2520    0.5197 C.3       1 <0>         0.0107
     21 C19        -4.0452    1.2513    0.7252 C.2       1 <0>        -0.0194
     22 C20        -4.9377    0.1098    1.0300 C.2       1 <0>         0.1561
     23 H1          1.4441    0.7464    1.3213 H         1 <0>         0.0310
     24 H2          0.0623    0.9026   -1.3784 H         1 <0>         0.0307
     25 H3         -0.7483   -0.2882    1.3181 H         1 <0>         0.0312
     26 H4          1.4650   -1.7253    1.3953 H         1 <0>         0.0272
     27 H5          1.8938   -2.6621   -0.0282 H         1 <0>         0.0272
     28 H6          2.3667    2.7507    0.5080 H         1 <0>         0.0269
     29 H7          2.3644    2.2028   -1.1714 H         1 <0>         0.0269
     30 H8         -0.1198   -1.9054   -1.1915 H         1 <0>         0.0268
     31 H9         -0.5483   -2.5207    0.3907 H         1 <0>         0.0268
     32 H10         4.5000    1.4135   -0.8268 H         1 <0>         0.0293
     33 H11         4.3958    1.7028    0.9037 H         1 <0>         0.0293
     34 H12        -0.0456    3.0465   -0.1716 H         1 <0>         0.0271
     35 H13        -0.5716    2.2295    1.2980 H         1 <0>         0.0271
     36 H14         2.8671    0.1562   -2.2709 H         1 <0>         0.0236
     37 H15         2.7429   -1.5940   -2.1017 H         1 <0>         0.0236
     38 H16         1.2942   -0.6207   -2.2849 H         1 <0>         0.0236
     39 H17        -2.0581    2.3683   -1.3725 H         1 <0>         0.0310
     40 H18        -2.4793    3.2023    0.1127 H         1 <0>         0.0310
     41 H19        -2.7198   -1.4186    1.6044 H         1 <0>         0.0278
     42 H20        -2.7892   -2.4084    0.1529 H         1 <0>         0.0278
     43 H21         4.8671   -0.3925    2.0959 H         1 <0>         0.0257
     44 H22         3.1577   -0.0897    2.4398 H         1 <0>         0.0257
     45 H23         3.7228   -1.7051    1.9544 H         1 <0>         0.0257
     46 H24        -1.8135    0.1292   -2.3344 H         1 <0>         0.0238
     47 H25        -2.1875   -1.5665   -2.0184 H         1 <0>         0.0238
     48 H26        -3.4769   -0.3691   -2.0563 H         1 <0>         0.0238
     49 H27         4.4057   -1.9814   -0.3052 H         1 <0>         0.2102
     50 H28        -5.0066   -2.0093    1.1657 H         1 <0>         0.0345
     51 H29        -4.9511   -1.3779   -0.4903 H         1 <0>         0.0345
     52 H30        -4.4226    2.2403    0.9625 H         1 <0>         0.0652
@<TRIPOS>BOND
     1    1    7 1
     2    1   49 1
     3    2   22 2
     4    3    4 1
     5    3    7 1
     6    3    8 1
     7    3   14 1
     8    4    5 1
     9    4   10 1
    10    4   23 1
    11    5    6 1
    12    5   13 1
    13    5   24 1
    14    6    9 1
    15    6   11 1
    16    6   25 1
    17    7   12 1
    18    7   18 1
    19    8   11 1
    20    8   26 1
    21    8   27 1
    22    9   15 1
    23    9   17 1
    24    9   19 1
    25   10   12 1
    26   10   28 1
    27   10   29 1
    28   11   30 1
    29   11   31 1
    30   12   32 1
    31   12   33 1
    32   13   16 1
    33   13   34 1
    34   13   35 1
    35   14   36 1
    36   14   37 1
    37   14   38 1
    38   15   16 1
    39   15   21 2
    40   16   39 1
    41   16   40 1
    42   17   20 1
    43   17   41 1
    44   17   42 1
    45   18   43 1
    46   18   44 1
    47   18   45 1
    48   19   46 1
    49   19   47 1
    50   19   48 1
    51   20   22 1
    52   20   50 1
    53   20   51 1
    54   21   22 1
    55   21   52 1
