@<TRIPOS>MOLECULE
DB06800
   52    57     0     0     0
SMALL
USER_CHARGES

@<TRIPOS>ATOM
      1 O1         -0.0617   -2.5952   -0.1197 O.3       1 <0>        -0.3819
      2 O2          3.6609   -0.1922   -1.3069 O.3       1 <0>        -0.4764
      3 O3          4.6204   -1.9780    0.4834 O.2       1 <0>        -0.2934
      4 O4          4.9811    2.3669   -0.8122 O.3       1 <0>        -0.5033
      5 N1         -1.5273   -0.0688   -0.6862 N.4       1 <0>         0.2458
      6 C1          1.3784   -0.7026   -0.6927 C.3       1 <0>         0.0820
      7 C2          0.4780   -1.3622    0.3595 C.3       1 <0>         0.1226
      8 C3         -0.6879   -0.3501    0.6489 C.3       1 <0>         0.0151
      9 C4          0.6061   -0.5126   -2.0174 C.3       1 <0>         0.0040
     10 C5         -0.6477    0.3533   -1.8685 C.3       1 <0>        -0.0289
     11 C6          2.7791   -1.2973   -0.9245 C.3       1 <0>         0.1704
     12 C7          1.8383    0.6274   -0.1997 C.ar      1 <0>         0.0146
     13 C8         -2.5700    1.0428   -0.4433 C.3       1 <0>        -0.0271
     14 C9         -0.1397    0.9876    1.2618 C.3       1 <0>         0.0187
     15 C10         1.2731   -1.7534    1.6258 C.3       1 <0>        -0.0109
     16 C11        -3.5368    0.7492    0.6525 C.3       1 <0>        -0.0007
     17 C12         1.1423    1.4774    0.6398 C.ar      1 <0>        -0.0343
     18 C13        -2.3624   -1.3030   -1.0858 C.3       1 <0>        -0.0409
     19 C14         2.4721   -2.6395    1.2882 C.3       1 <0>         0.0124
     20 C15         3.4001   -1.9492    0.3149 C.2       1 <0>         0.1745
     21 C16         3.1180    0.8868   -0.6475 C.ar      1 <0>         0.1669
     22 C17        -4.7059   -0.1504    0.3773 C.3       1 <0>        -0.0450
     23 C18        -4.9225    1.3205    0.5804 C.3       1 <0>        -0.0450
     24 C19         1.7528    2.6929    0.9491 C.ar      1 <0>        -0.0544
     25 C20         3.7318    2.0862   -0.3685 C.ar      1 <0>         0.1588
     26 C21         3.0292    3.0008    0.4297 C.ar      1 <0>        -0.0162
     27 H1         -1.4060   -0.8019    1.3427 H         1 <0>         0.0884
     28 H2          0.3359   -1.4922   -2.4301 H         1 <0>         0.0328
     29 H3          1.2454   -0.0449   -2.7785 H         1 <0>         0.0328
     30 H4         -0.3743    1.4031   -1.7163 H         1 <0>         0.0815
     31 H5         -1.2621    0.3047   -2.7756 H         1 <0>         0.0815
     32 H6          2.7796   -2.0447   -1.7260 H         1 <0>         0.0824
     33 H7         -2.0465    1.9879   -0.2747 H         1 <0>         0.0818
     34 H8         -3.0979    1.1783   -1.3981 H         1 <0>         0.0818
     35 H9          0.0876    0.7828    2.3172 H         1 <0>         0.0369
     36 H10        -0.8728    1.7936    1.2936 H         1 <0>         0.0369
     37 H11         0.6235   -2.3023    2.3193 H         1 <0>         0.0299
     38 H12         1.6386   -0.8748    2.1671 H         1 <0>         0.0299
     39 H13        -3.0842    0.7207    1.6349 H         1 <0>         0.0352
     40 H14        -2.7798   -1.7689   -0.1910 H         1 <0>         0.0778
     41 H15        -3.1318   -0.9982   -1.8010 H         1 <0>         0.0778
     42 H16        -1.7196   -2.0152   -1.6054 H         1 <0>         0.0778
     43 H17         2.1582   -3.5910    0.8467 H         1 <0>         0.0344
     44 H18         3.0280   -2.8629    2.2054 H         1 <0>         0.0344
     45 H19        -4.9249   -0.5140   -0.6177 H         1 <0>         0.0270
     46 H20        -5.0200   -0.8197    1.1695 H         1 <0>         0.0270
     47 H21        -5.3869    1.6376    1.5062 H         1 <0>         0.0270
     48 H22        -5.1960    1.9155   -0.2823 H         1 <0>         0.0270
     49 H23        -0.6676   -2.9428    0.5569 H         1 <0>         0.2105
     50 H24         1.2613    3.4024    1.6094 H         1 <0>         0.0622
     51 H25         3.4796    3.9562    0.6900 H         1 <0>         0.0655
     52 H26         5.2329    3.2533   -0.5008 H         1 <0>         0.2923
@<TRIPOS>BOND
     1    1    7 1
     2    1   49 1
     3    2   11 1
     4    2   21 1
     5    3   20 2
     6    4   25 1
     7    4   52 1
     8    5    8 1
     9    5   10 1
    10    5   13 1
    11    5   18 1
    12    6    7 1
    13    6    9 1
    14    6   11 1
    15    6   12 1
    16    7    8 1
    17    7   15 1
    18    8   14 1
    19    8   27 1
    20    9   10 1
    21    9   28 1
    22    9   29 1
    23   10   30 1
    24   10   31 1
    25   11   20 1
    26   11   32 1
    27   12   17 ar
    28   12   21 ar
    29   13   16 1
    30   13   33 1
    31   13   34 1
    32   14   17 1
    33   14   35 1
    34   14   36 1
    35   15   19 1
    36   15   37 1
    37   15   38 1
    38   16   22 1
    39   16   23 1
    40   16   39 1
    41   17   24 ar
    42   18   40 1
    43   18   41 1
    44   18   42 1
    45   19   20 1
    46   19   43 1
    47   19   44 1
    48   21   25 ar
    49   22   23 1
    50   22   45 1
    51   22   46 1
    52   23   47 1
    53   23   48 1
    54   24   26 ar
    55   24   50 1
    56   25   26 ar
    57   26   51 1
