@<TRIPOS>MOLECULE
DB06809
   90    92     0     0     0
SMALL
USER_CHARGES

@<TRIPOS>ATOM
      1 N1         -3.2042    0.1147   -1.5956 N.3       1 <0>        -0.2969
      2 N2          3.1960    0.1124    1.5845 N.3       1 <0>        -0.2969
      3 N3         -6.5632    1.7097   -1.5528 N.3       1 <0>        -0.3147
      4 N4          6.5495    1.7191    1.5573 N.3       1 <0>        -0.3147
      5 N5         -4.6890   -2.5067    0.0358 N.3       1 <0>        -0.3147
      6 N6          4.6994   -2.5081   -0.0309 N.3       1 <0>        -0.3147
      7 N7         -6.7898   -0.4398    0.7709 N.3       1 <0>        -0.3147
      8 N8          6.7975   -0.4358   -0.7592 N.3       1 <0>        -0.3147
      9 C1         -2.8380   -1.2535   -1.9785 C.3       1 <0>         0.0004
     10 C2          2.8323   -1.2559    1.9690 C.3       1 <0>         0.0004
     11 C3         -2.1587    1.0725   -1.9439 C.3       1 <0>         0.0241
     12 C4          2.1450    1.0677    1.9241 C.3       1 <0>         0.0241
     13 C5         -4.5226    0.5004   -2.1106 C.3       1 <0>         0.0118
     14 C6          4.5099    0.5042    2.1062 C.3       1 <0>         0.0118
     15 C7         -2.3748   -2.0459   -0.7455 C.3       1 <0>        -0.0276
     16 C8          2.3791   -2.0533    0.7354 C.3       1 <0>        -0.0276
     17 C9         -1.0392    1.0719   -0.9373 C.ar      1 <0>        -0.0333
     18 C10         1.0357    1.0698    0.9275 C.ar      1 <0>        -0.0333
     19 C11        -5.1301    1.6239   -1.2632 C.3       1 <0>         0.0087
     20 C12         5.1185    1.6275    1.2594 C.3       1 <0>         0.0087
     21 C13        -3.3599   -2.0433    0.4380 C.3       1 <0>        -0.0029
     22 C14         3.3712   -2.0504   -0.4422 C.3       1 <0>        -0.0029
     23 C15        -1.3279    1.0714    0.4274 C.ar      1 <0>        -0.0570
     24 C16        -0.2905    1.0705    1.3598 C.ar      1 <0>        -0.0570
     25 C17         0.2871    1.0710   -1.3695 C.ar      1 <0>        -0.0570
     26 C18         1.3244    1.0701   -0.4372 C.ar      1 <0>        -0.0570
     27 C19        -7.2798    2.5074   -0.5620 C.3       1 <0>        -0.0029
     28 C20         7.2692    2.5167    0.5687 C.3       1 <0>        -0.0029
     29 C21        -8.1040    1.6559    0.4147 C.3       1 <0>        -0.0278
     30 C22         8.1021    1.6655   -0.4010 C.3       1 <0>        -0.0278
     31 C23        -5.6251   -2.6067    1.1578 C.3       1 <0>         0.0084
     32 C24         5.6427   -2.6079   -1.1471 C.3       1 <0>         0.0084
     33 C25        -7.3083    0.7813    1.3935 C.3       1 <0>        -0.0029
     34 C26         7.3153    0.7855   -1.3820 C.3       1 <0>        -0.0029
     35 C27        -6.0798   -1.2655    1.7528 C.3       1 <0>         0.0084
     36 C28         6.0962   -1.2666   -1.7429 C.3       1 <0>         0.0084
     37 H1         -2.0479   -1.2766   -2.7403 H         1 <0>         0.0427
     38 H2         -3.6772   -1.7910   -2.4378 H         1 <0>         0.0427
     39 H3          2.0378   -1.2798    2.7260 H         1 <0>         0.0427
     40 H4          3.6707   -1.7894    2.4347 H         1 <0>         0.0427
     41 H5         -1.7877    0.9047   -2.9635 H         1 <0>         0.0476
     42 H6         -2.5442    2.0997   -1.9433 H         1 <0>         0.0476
     43 H7          1.7769    0.9015    2.9453 H         1 <0>         0.0476
     44 H8          2.5320    2.0945    1.9272 H         1 <0>         0.0476
     45 H9         -5.2015   -0.3589   -2.0648 H         1 <0>         0.0439
     46 H10        -4.4686    0.7905   -3.1681 H         1 <0>         0.0439
     47 H11         4.4488    0.7970    3.1627 H         1 <0>         0.0439
     48 H12         5.1921   -0.3528    2.0668 H         1 <0>         0.0439
     49 H13        -2.2080   -3.0852   -1.0589 H         1 <0>         0.0290
     50 H14        -1.4010   -1.6846   -0.3986 H         1 <0>         0.0290
     51 H15         2.2131   -3.0922    1.0503 H         1 <0>         0.0290
     52 H16         1.4066   -1.6948    0.3818 H         1 <0>         0.0290
     53 H17        -4.9619    1.4082   -0.2020 H         1 <0>         0.0437
     54 H18        -4.6556    2.5849   -1.4879 H         1 <0>         0.0437
     55 H19         4.9574    1.4082    0.1979 H         1 <0>         0.0437
     56 H20         4.6395    2.5875    1.4785 H         1 <0>         0.0437
     57 H21        -3.4154   -1.0389    0.8661 H         1 <0>         0.0424
     58 H22        -2.9557   -2.7049    1.2134 H         1 <0>         0.0424
     59 H23         3.4254   -1.0467   -0.8726 H         1 <0>         0.0424
     60 H24         2.9740   -2.7154   -1.2183 H         1 <0>         0.0424
     61 H25        -2.3525    1.0973    0.7873 H         1 <0>         0.0621
     62 H26        -0.5306    1.0756    2.4197 H         1 <0>         0.0621
     63 H27         0.5263    1.0765   -2.4295 H         1 <0>         0.0621
     64 H28         2.3490    1.0941   -0.7975 H         1 <0>         0.0621
     65 H29        -6.9753    0.7795   -1.6105 H         1 <0>         0.1220
     66 H30         6.9646    0.7906    1.6200 H         1 <0>         0.1220
     67 H31        -7.9790    3.1499   -1.1102 H         1 <0>         0.0424
     68 H32        -6.6146    3.1849   -0.0123 H         1 <0>         0.0424
     69 H33         6.6051    3.1904    0.0132 H         1 <0>         0.0424
     70 H34         7.9630    3.1630    1.1193 H         1 <0>         0.0424
     71 H35        -8.7084    2.3505    1.0134 H         1 <0>         0.0290
     72 H36        -8.8251    1.0405   -0.1392 H         1 <0>         0.0290
     73 H37         8.7076    2.3606   -0.9980 H         1 <0>         0.0290
     74 H38         8.8222    1.0540    0.1590 H         1 <0>         0.0290
     75 H39        -5.0808   -1.8804   -0.6626 H         1 <0>         0.1220
     76 H40         5.0851   -1.8785    0.6681 H         1 <0>         0.1220
     77 H41        -6.5079   -3.1543    0.8048 H         1 <0>         0.0436
     78 H42        -5.1888   -3.2273    1.9501 H         1 <0>         0.0436
     79 H43         6.5251   -3.1514   -0.7874 H         1 <0>         0.0436
     80 H44         5.2131   -3.2320   -1.9403 H         1 <0>         0.0436
     81 H45        -6.4895    1.3698    1.8241 H         1 <0>         0.0424
     82 H46        -7.9807    0.5041    2.2149 H         1 <0>         0.0424
     83 H47         7.9936    0.5083   -2.1986 H         1 <0>         0.0424
     84 H48         6.4971    1.3698   -1.8191 H         1 <0>         0.0424
     85 H49        -6.7456   -1.4864    2.5966 H         1 <0>         0.0436
     86 H50        -5.2212   -0.7174    2.1559 H         1 <0>         0.0436
     87 H51         6.7677   -1.4875   -2.5823 H         1 <0>         0.0436
     88 H52         5.2380   -0.7226   -2.1526 H         1 <0>         0.0436
     89 H53        -7.5612   -0.9721    0.3697 H         1 <0>         0.1220
     90 H54         7.5684   -0.9644   -0.3520 H         1 <0>         0.1220
@<TRIPOS>BOND
     1    1    9 1
     2    1   11 1
     3    1   13 1
     4    2   10 1
     5    2   12 1
     6    2   14 1
     7    3   19 1
     8    3   27 1
     9    3   65 1
    10    4   20 1
    11    4   28 1
    12    4   66 1
    13    5   21 1
    14    5   31 1
    15    5   75 1
    16    6   22 1
    17    6   32 1
    18    6   76 1
    19    7   33 1
    20    7   35 1
    21    7   89 1
    22    8   34 1
    23    8   36 1
    24    8   90 1
    25    9   15 1
    26    9   37 1
    27    9   38 1
    28   10   16 1
    29   10   39 1
    30   10   40 1
    31   11   17 1
    32   11   41 1
    33   11   42 1
    34   12   18 1
    35   12   43 1
    36   12   44 1
    37   13   19 1
    38   13   45 1
    39   13   46 1
    40   14   20 1
    41   14   47 1
    42   14   48 1
    43   15   21 1
    44   15   49 1
    45   15   50 1
    46   16   22 1
    47   16   51 1
    48   16   52 1
    49   17   23 ar
    50   17   25 ar
    51   18   24 ar
    52   18   26 ar
    53   19   53 1
    54   19   54 1
    55   20   55 1
    56   20   56 1
    57   21   57 1
    58   21   58 1
    59   22   59 1
    60   22   60 1
    61   23   24 ar
    62   23   61 1
    63   24   62 1
    64   25   26 ar
    65   25   63 1
    66   26   64 1
    67   27   29 1
    68   27   67 1
    69   27   68 1
    70   28   30 1
    71   28   69 1
    72   28   70 1
    73   29   33 1
    74   29   71 1
    75   29   72 1
    76   30   34 1
    77   30   73 1
    78   30   74 1
    79   31   35 1
    80   31   77 1
    81   31   78 1
    82   32   36 1
    83   32   79 1
    84   32   80 1
    85   33   81 1
    86   33   82 1
    87   34   83 1
    88   34   84 1
    89   35   85 1
    90   35   86 1
    91   36   87 1
    92   36   88 1
