@<TRIPOS>MOLECULE
DB06448
   67    71     0     0     0
SMALL
USER_CHARGES

@<TRIPOS>ATOM
      1 Br1         0.8897    2.1582    2.4952 Br        1 <0>        -0.0499
      2 Br2         6.0216   -4.6754    2.4011 Br        1 <0>        -0.0487
      3 Cl1         4.3343    5.8903    0.5087 Cl        1 <0>        -0.0835
      4 O1         -2.3060   -2.8232   -1.8716 O.2       1 <0>        -0.2756
      5 O2         -7.3821   -1.0771    2.3189 O.2       1 <0>        -0.2529
      6 N1         -0.6988   -1.1458   -1.8844 N.am      1 <0>        -0.3015
      7 N2         -5.7625    0.1333    1.1753 N.am      1 <0>        -0.2858
      8 N3          2.9581   -1.9888    1.7270 N.ar      1 <0>        -0.2579
      9 N4         -7.9496    0.9626    1.5233 N.am      1 <0>        -0.3132
     10 C1          1.7541   -0.2644   -0.6113 C.3       1 <0>        -0.0259
     11 C2          2.5602    0.1026    0.6324 C.3       1 <0>         0.0309
     12 C3          1.2884   -1.7270   -0.5492 C.3       1 <0>        -0.0334
     13 C4          0.5460    0.6704   -0.7753 C.3       1 <0>        -0.0334
     14 C5          0.4195   -2.0813   -1.7538 C.3       1 <0>         0.0149
     15 C6         -0.3099    0.2665   -1.9746 C.3       1 <0>         0.0149
     16 C7         -3.6155   -0.1566   -0.7616 C.3       1 <0>        -0.0300
     17 C8          3.0678    1.5322    0.5956 C.ar      1 <0>        -0.0210
     18 C9          3.5449   -0.9931    0.9962 C.ar      1 <0>         0.0522
     19 C10        -3.0969   -0.6045   -2.1258 C.3       1 <0>         0.0271
     20 C11        -2.0049   -1.6294   -1.9502 C.2       1 <0>         0.2158
     21 C12        -4.1552   -1.3516    0.0374 C.3       1 <0>        -0.0338
     22 C13        -4.7067    0.9130   -0.9154 C.3       1 <0>        -0.0338
     23 C14         4.1432    1.9422   -0.2089 C.ar      1 <0>        -0.0408
     24 C15         4.8932   -1.0545    0.6265 C.ar      1 <0>        -0.0241
     25 C16        -4.7430   -0.9007    1.3722 C.3       1 <0>         0.0164
     26 C17        -5.2903    1.3150    0.4391 C.3       1 <0>         0.0164
     27 C18         4.9226    0.9541   -1.0298 C.3       1 <0>        -0.0233
     28 C19         5.6810   -0.0258   -0.1459 C.3       1 <0>        -0.0219
     29 C20         2.3974    2.5028    1.3670 C.ar      1 <0>         0.0233
     30 C21         4.5240    3.2960   -0.2251 C.ar      1 <0>        -0.0399
     31 C22         5.6275   -2.1731    1.0718 C.ar      1 <0>        -0.0414
     32 C23         2.7857    3.8422    1.3450 C.ar      1 <0>        -0.0291
     33 C24         3.8497    4.2396    0.5466 C.ar      1 <0>         0.0423
     34 C25        -7.0428   -0.0586    1.7075 C.2       1 <0>         0.2996
     35 C26         3.7029   -3.0431    2.1168 C.ar      1 <0>         0.0419
     36 C27         5.0370   -3.1817    1.8188 C.ar      1 <0>         0.0362
     37 H1          2.3646   -0.1682   -1.5145 H         1 <0>         0.0311
     38 H2          1.8519    0.0266    1.4616 H         1 <0>         0.0416
     39 H3          0.7059   -1.9044    0.3639 H         1 <0>         0.0283
     40 H4          2.1308   -2.4254   -0.5729 H         1 <0>         0.0283
     41 H5          0.8580    1.7096   -0.9200 H         1 <0>         0.0283
     42 H6         -0.0857    0.6243    0.1191 H         1 <0>         0.0283
     43 H7          0.0580   -3.1102   -1.6591 H         1 <0>         0.0464
     44 H8          1.0035   -2.0239   -2.6801 H         1 <0>         0.0464
     45 H9          0.2537    0.3892   -2.9071 H         1 <0>         0.0464
     46 H10        -1.1611    0.9440   -2.0185 H         1 <0>         0.0464
     47 H11        -2.7852    0.2830   -0.1922 H         1 <0>         0.0306
     48 H12        -2.8000    0.2280   -2.7662 H         1 <0>         0.0361
     49 H13        -3.9064   -1.0970   -2.6829 H         1 <0>         0.0361
     50 H14        -4.9290   -1.8711   -0.5423 H         1 <0>         0.0283
     51 H15        -3.3637   -2.0756    0.2558 H         1 <0>         0.0283
     52 H16        -4.2958    1.7993   -1.4130 H         1 <0>         0.0283
     53 H17        -5.5127    0.5281   -1.5536 H         1 <0>         0.0283
     54 H18        -3.9614   -0.4719    2.0108 H         1 <0>         0.0465
     55 H19        -5.1567   -1.7647    1.9015 H         1 <0>         0.0465
     56 H20        -6.0756    2.0528    0.2794 H         1 <0>         0.0465
     57 H21        -4.5209    1.7929    1.0574 H         1 <0>         0.0465
     58 H22         4.2838    0.4390   -1.7500 H         1 <0>         0.0316
     59 H23         5.6580    1.4932   -1.6419 H         1 <0>         0.0316
     60 H24         6.2988    0.5301    0.5728 H         1 <0>         0.0317
     61 H25         6.3755   -0.5634   -0.8065 H         1 <0>         0.0317
     62 H26         5.3618    3.6105   -0.8450 H         1 <0>         0.0635
     63 H27         6.6857   -2.2454    0.8229 H         1 <0>         0.0632
     64 H28         2.2605    4.5844    1.9429 H         1 <0>         0.0643
     65 H29         3.1635   -3.7869    2.6946 H         1 <0>         0.0841
     66 H30        -7.7514    1.8370    1.0563 H         1 <0>         0.1465
     67 H31        -8.8929    0.8710    1.8870 H         1 <0>         0.1465
@<TRIPOS>BOND
     1    1   29 1
     2    2   36 1
     3    3   33 1
     4    4   20 2
     5    5   34 2
     6    6   14 1
     7    6   15 1
     8    6   20 am
     9    7   25 1
    10    7   26 1
    11    7   34 am
    12    8   18 ar
    13    8   35 ar
    14    9   34 am
    15    9   66 1
    16    9   67 1
    17   10   11 1
    18   10   12 1
    19   10   13 1
    20   10   37 1
    21   11   17 1
    22   11   18 1
    23   11   38 1
    24   12   14 1
    25   12   39 1
    26   12   40 1
    27   13   15 1
    28   13   41 1
    29   13   42 1
    30   14   43 1
    31   14   44 1
    32   15   45 1
    33   15   46 1
    34   16   19 1
    35   16   21 1
    36   16   22 1
    37   16   47 1
    38   17   23 ar
    39   17   29 ar
    40   18   24 ar
    41   19   20 1
    42   19   48 1
    43   19   49 1
    44   21   25 1
    45   21   50 1
    46   21   51 1
    47   22   26 1
    48   22   52 1
    49   22   53 1
    50   23   27 1
    51   23   30 ar
    52   24   28 1
    53   24   31 ar
    54   25   54 1
    55   25   55 1
    56   26   56 1
    57   26   57 1
    58   27   28 1
    59   27   58 1
    60   27   59 1
    61   28   60 1
    62   28   61 1
    63   29   32 ar
    64   30   33 ar
    65   30   62 1
    66   31   36 ar
    67   31   63 1
    68   32   33 ar
    69   32   64 1
    70   35   36 ar
    71   35   65 1
