@<TRIPOS>MOLECULE
DB06274
   63    65     0     0     0
SMALL
USER_CHARGES

@<TRIPOS>ATOM
      1 O1          2.5148   -0.4999   -2.6776 O.2       1 <0>        -0.2753
      2 O2         -6.4897   -1.0588    2.6901 O.3       1 <0>        -0.5068
      3 O3          2.4401   -4.1041    0.6880 O.co2     1 <0>        -0.5482
      4 O4          0.4800   -4.5731   -0.3938 O.co2     1 <0>        -0.5482
      5 N1         -0.0502    1.1488   -0.7787 N.4       1 <0>         0.2360
      6 N2          2.0528   -1.5987   -0.6908 N.am      1 <0>        -0.3097
      7 C1         -2.9093    1.0187    0.0761 C.3       1 <0>         0.0052
      8 C2         -1.7313    0.4157    0.9279 C.3       1 <0>         0.0059
      9 C3         -0.4037    1.1555    0.6864 C.3       1 <0>        -0.0284
     10 C4         -2.4501    1.1007   -1.4114 C.3       1 <0>        -0.0027
     11 C5         -1.1097    1.7975   -1.6268 C.3       1 <0>        -0.0310
     12 C6          1.3037    1.7590   -1.0237 C.3       1 <0>        -0.0202
     13 C7         -3.2988    2.4143    0.5942 C.3       1 <0>        -0.0549
     14 C8         -4.1469    0.1720    0.1641 C.ar      1 <0>        -0.0374
     15 C9         -1.5340   -1.0984    0.7192 C.3       1 <0>        -0.0568
     16 C10         2.4344    0.7998   -0.6242 C.3       1 <0>         0.0793
     17 C11        -4.7517   -0.0525    1.4008 C.ar      1 <0>        -0.0165
     18 C12        -4.6908   -0.3907   -0.9907 C.ar      1 <0>        -0.0578
     19 C13         3.8227    1.4666   -0.7113 C.3       1 <0>        -0.0116
     20 C14         2.3528   -0.4833   -1.4595 C.2       1 <0>         0.2218
     21 C15        -5.9006   -0.8393    1.4829 C.ar      1 <0>         0.1171
     22 C16        -5.8395   -1.1777   -0.9086 C.ar      1 <0>        -0.0580
     23 C17         4.8600    0.7856    0.1524 C.ar      1 <0>        -0.0464
     24 C18        -6.4447   -1.4018    0.3281 C.ar      1 <0>        -0.0202
     25 C19         5.0478    1.1970    1.4720 C.ar      1 <0>        -0.0585
     26 C20         5.6292   -0.2541   -0.3704 C.ar      1 <0>        -0.0585
     27 C21         1.9004   -2.9123   -1.2693 C.3       1 <0>         0.0512
     28 C22         6.0049    0.5685    2.2689 C.ar      1 <0>        -0.0615
     29 C23         6.5863   -0.8824    0.4265 C.ar      1 <0>        -0.0615
     30 C24         6.7739   -0.4713    1.7462 C.ar      1 <0>        -0.0617
     31 C25         1.5734   -3.9652   -0.2206 C.2       1 <0>         0.0588
     32 H1         -1.9673    0.5441    1.9936 H         1 <0>         0.0358
     33 H2         -0.0019    0.1691   -1.0845 H         1 <0>         0.2034
     34 H3          0.3998    0.6678    1.2439 H         1 <0>         0.0817
     35 H4         -0.4596    2.2011    1.0082 H         1 <0>         0.0817
     36 H5         -2.3193    0.0986   -1.8408 H         1 <0>         0.0325
     37 H6         -3.1942    1.6320   -2.0203 H         1 <0>         0.0325
     38 H7         -1.1459    2.8597   -1.3641 H         1 <0>         0.0815
     39 H8         -0.7998    1.6993   -2.6730 H         1 <0>         0.0815
     40 H9          1.3479    2.7041   -0.4705 H         1 <0>         0.0822
     41 H10         1.3722    1.9818   -2.0952 H         1 <0>         0.0822
     42 H11        -2.4892    3.1396    0.4679 H         1 <0>         0.0238
     43 H12        -3.5469    2.4140    1.6616 H         1 <0>         0.0238
     44 H13        -4.1675    2.8133    0.0554 H         1 <0>         0.0238
     45 H14        -1.3837   -1.3627   -0.3312 H         1 <0>         0.0234
     46 H15        -2.3878   -1.6729    1.0906 H         1 <0>         0.0234
     47 H16        -0.6581   -1.4502    1.2761 H         1 <0>         0.0234
     48 H17         2.2917    0.5363    0.4298 H         1 <0>         0.0450
     49 H18        -4.3405    0.3679    2.3146 H         1 <0>         0.0657
     50 H19         3.7533    2.5170   -0.3988 H         1 <0>         0.0322
     51 H20         4.1735    1.4919   -1.7512 H         1 <0>         0.0322
     52 H21        -4.3039   -0.2577   -1.9929 H         1 <0>         0.0620
     53 H22        -6.2666   -1.6133   -1.8074 H         1 <0>         0.0619
     54 H23        -7.3397   -2.0161    0.3784 H         1 <0>         0.0654
     55 H24         1.9257   -1.4997    0.3120 H         1 <0>         0.1491
     56 H25         4.4530    2.0040    1.8913 H         1 <0>         0.0620
     57 H26         5.4932   -0.5836   -1.3969 H         1 <0>         0.0620
     58 H27         2.8359   -3.1761   -1.7750 H         1 <0>         0.0523
     59 H28         1.1154   -2.8572   -2.0318 H         1 <0>         0.0523
     60 H29        -7.2710   -1.6235    2.5611 H         1 <0>         0.2921
     61 H30         6.1508    0.8882    3.2966 H         1 <0>         0.0618
     62 H31         7.1851   -1.6919    0.0195 H         1 <0>         0.0618
     63 H32         7.5188   -0.9609    2.3667 H         1 <0>         0.0618
@<TRIPOS>BOND
     1    1   20 2
     2    2   21 1
     3    2   60 1
     4    3   31 2
     5    4   31 1
     6    5    9 1
     7    5   11 1
     8    5   12 1
     9    5   33 1
    10    6   20 am
    11    6   27 1
    12    6   55 1
    13    7    8 1
    14    7   10 1
    15    7   13 1
    16    7   14 1
    17    8    9 1
    18    8   15 1
    19    8   32 1
    20    9   34 1
    21    9   35 1
    22   10   11 1
    23   10   36 1
    24   10   37 1
    25   11   38 1
    26   11   39 1
    27   12   16 1
    28   12   40 1
    29   12   41 1
    30   13   42 1
    31   13   43 1
    32   13   44 1
    33   14   17 ar
    34   14   18 ar
    35   15   45 1
    36   15   46 1
    37   15   47 1
    38   16   19 1
    39   16   20 1
    40   16   48 1
    41   17   21 ar
    42   17   49 1
    43   18   22 ar
    44   18   52 1
    45   19   23 1
    46   19   50 1
    47   19   51 1
    48   21   24 ar
    49   22   24 ar
    50   22   53 1
    51   23   25 ar
    52   23   26 ar
    53   24   54 1
    54   25   28 ar
    55   25   56 1
    56   26   29 ar
    57   26   57 1
    58   27   31 1
    59   27   58 1
    60   27   59 1
    61   28   30 ar
    62   28   61 1
    63   29   30 ar
    64   29   62 1
    65   30   63 1
