@<TRIPOS>MOLECULE
DB06414
   43    45     0     0     0
SMALL
USER_CHARGES

@<TRIPOS>ATOM
      1 Br1         5.1298   -1.1792   -0.1583 Br        1 <0>        -0.0412
      2 O1          2.0809   -1.7006   -0.1523 O.3       1 <0>        -0.4362
      3 N1          0.5612    2.6806    0.1650 N.pl3     1 <0>        -0.2835
      4 N2          1.3279    0.4688    0.0049 N.ar      1 <0>        -0.1778
      5 N3          2.8778    2.3111    0.1108 N.ar      1 <0>        -0.1983
      6 N4          5.2057    1.9331    0.0521 N.pl3     1 <0>        -0.3420
      7 N5         -4.4464   -3.3989   -0.1764 N.1       1 <0>        -0.1909
      8 N6         -6.1735    1.8080    0.1997 N.1       1 <0>        -0.1909
      9 C1          0.7447   -2.0483   -0.1571 C.ar      1 <0>         0.1363
     10 C2          0.0691   -2.1384   -1.3648 C.ar      1 <0>        -0.0066
     11 C3          0.1026   -2.3011    1.0454 C.ar      1 <0>        -0.0066
     12 C4         -1.2808   -2.4896   -1.3698 C.ar      1 <0>        -0.0379
     13 C5         -1.2473   -2.6525    1.0405 C.ar      1 <0>        -0.0379
     14 C6         -1.9389   -2.7467   -0.1672 C.ar      1 <0>         0.0525
     15 C7          0.7566   -1.8668   -2.6623 C.3       1 <0>        -0.0362
     16 C8          0.8262   -2.2051    2.3483 C.3       1 <0>        -0.0362
     17 C9          2.3845   -0.3674   -0.0665 C.ar      1 <0>         0.2409
     18 C10         1.6395    1.7778    0.0906 C.ar      1 <0>         0.2243
     19 C11        -0.8376    2.4993    0.1716 C.ar      1 <0>         0.0337
     20 C12         3.6982    0.0543   -0.0547 C.ar      1 <0>         0.1192
     21 C13         3.8866    1.4184    0.0363 C.ar      1 <0>         0.1391
     22 C14        -1.6714    3.4853   -0.3560 C.ar      1 <0>        -0.0393
     23 C15        -1.3871    1.3344    0.7067 C.ar      1 <0>        -0.0393
     24 C16        -3.0548    3.3062   -0.3484 C.ar      1 <0>        -0.0426
     25 C17        -2.7703    1.1553    0.7143 C.ar      1 <0>        -0.0426
     26 C18        -3.6042    2.1413    0.1868 C.ar      1 <0>         0.0519
     27 C19        -3.3219   -3.1065   -0.1722 C.1       1 <0>         0.0992
     28 C20        -5.0213    1.9575    0.1939 C.1       1 <0>         0.0992
     29 H1         -1.8214   -2.5608   -2.3114 H         1 <0>         0.0634
     30 H2         -1.7620   -2.8503    1.9786 H         1 <0>         0.0634
     31 H3          0.1745   -2.2387   -3.5124 H         1 <0>         0.0279
     32 H4          0.9006   -0.7903   -2.7979 H         1 <0>         0.0279
     33 H5          1.7295   -2.3681   -2.7021 H         1 <0>         0.0279
     34 H6          0.2654   -2.6858    3.1573 H         1 <0>         0.0279
     35 H7          1.7973   -2.7085    2.2942 H         1 <0>         0.0279
     36 H8          0.9792   -1.1564    2.6218 H         1 <0>         0.0279
     37 H9          0.8574    3.6490    0.0894 H         1 <0>         0.1550
     38 H10        -1.2554    4.3972   -0.7767 H         1 <0>         0.0636
     39 H11        -0.7793    0.5700    1.1760 H         1 <0>         0.0636
     40 H12        -3.6916    4.0837   -0.7636 H         1 <0>         0.0631
     41 H13        -3.1852    0.2476    1.1464 H         1 <0>         0.0631
     42 H14         5.9464    1.3439    0.4114 H         1 <0>         0.1437
     43 H15         5.3087    2.9374    0.1281 H         1 <0>         0.1437
@<TRIPOS>BOND
     1    1   20 1
     2    2    9 1
     3    2   17 1
     4    3   18 1
     5    3   19 1
     6    3   37 1
     7    4   17 ar
     8    4   18 ar
     9    5   18 ar
    10    5   21 ar
    11    6   21 1
    12    6   42 1
    13    6   43 1
    14    7   27 3
    15    8   28 3
    16    9   10 ar
    17    9   11 ar
    18   10   12 ar
    19   10   15 1
    20   11   13 ar
    21   11   16 1
    22   12   14 ar
    23   12   29 1
    24   13   14 ar
    25   13   30 1
    26   14   27 1
    27   15   31 1
    28   15   32 1
    29   15   33 1
    30   16   34 1
    31   16   35 1
    32   16   36 1
    33   17   20 ar
    34   19   22 ar
    35   19   23 ar
    36   20   21 ar
    37   22   24 ar
    38   22   38 1
    39   23   25 ar
    40   23   39 1
    41   24   26 ar
    42   24   40 1
    43   25   26 ar
    44   25   41 1
    45   26   28 1
