@<TRIPOS>MOLECULE
DB06119
   28    29     0     0     0
SMALL
USER_CHARGES

@<TRIPOS>ATOM
      1 Cl1        -1.2682   -2.2453   -2.0446 Cl        1 <0>        -0.0831
      2 O1          0.7350    1.0979   -0.0850 O.3       1 <0>        -0.4405
      3 O2         -0.6825    1.7971   -1.7588 O.2       1 <0>        -0.2267
      4 N1          2.5958   -1.0991    0.3345 N.pl3     1 <0>        -0.1595
      5 N2          3.3771   -0.2182    0.9552 N.2       1 <0>        -0.1389
      6 N3          3.1706   -1.9129   -0.5479 N.2       1 <0>        -0.0463
      7 N4          4.4490   -1.5559   -0.5244 N.2       1 <0>        -0.1164
      8 N5          0.6218    3.2842   -0.5867 N.am      1 <0>        -0.2950
      9 C1          0.3213   -0.2574   -0.3044 C.3       1 <0>         0.1520
     10 C2          1.1657   -1.1690    0.6091 C.3       1 <0>         0.1040
     11 C3         -1.1516   -0.3660   -0.0741 C.ar      1 <0>         0.0129
     12 C4         -1.9462   -1.2398   -0.8163 C.ar      1 <0>         0.0477
     13 C5         -1.7284    0.4334    0.9128 C.ar      1 <0>        -0.0536
     14 C6         -3.3174   -1.3140   -0.5717 C.ar      1 <0>        -0.0430
     15 C7         -3.0995    0.3593    1.1572 C.ar      1 <0>        -0.0613
     16 C8         -3.8941   -0.5144    0.4150 C.ar      1 <0>        -0.0604
     17 C9          0.1491    2.0310   -0.8882 C.2       1 <0>         0.3983
     18 C10         4.5392   -0.5422    0.3825 C.2       1 <0>         0.1617
     19 H1          0.5849   -0.4791   -1.3456 H         1 <0>         0.0806
     20 H2          1.0402   -0.8890    1.6627 H         1 <0>         0.0567
     21 H3          0.8683   -2.2192    0.5065 H         1 <0>         0.0567
     22 H4         -1.1350    1.1051    1.5274 H         1 <0>         0.0622
     23 H5         -3.9504   -1.9899   -1.1409 H         1 <0>         0.0632
     24 H6         -3.5479    0.9772    1.9297 H         1 <0>         0.0618
     25 H7         -4.9615   -0.5731    0.6066 H         1 <0>         0.0618
     26 H8          5.4580   -0.0334    0.6297 H         1 <0>         0.1085
     27 H9          1.3107    3.4270    0.1443 H         1 <0>         0.1482
     28 H10         0.2963    4.1058   -1.0846 H         1 <0>         0.1482
@<TRIPOS>BOND
     1    1   12 1
     2    2    9 1
     3    2   17 1
     4    3   17 2
     5    4    5 1
     6    4    6 2
     7    4   10 1
     8    5   18 1
     9    6    7 1
    10    7   18 2
    11    8   17 am
    12    8   27 1
    13    8   28 1
    14    9   10 1
    15    9   11 1
    16    9   19 1
    17   10   20 1
    18   10   21 1
    19   11   12 ar
    20   11   13 ar
    21   12   14 ar
    22   13   15 ar
    23   13   22 1
    24   14   16 ar
    25   14   23 1
    26   15   16 ar
    27   15   24 1
    28   16   25 1
    29   18   26 1
