@<TRIPOS>MOLECULE
DB06147
   25    26     0     0     0
SMALL
USER_CHARGES

@<TRIPOS>ATOM
      1 S1          0.9114    2.2283   -0.7672 S.o2      1 <0>         0.0738
      2 S2          2.7391   -0.5062    1.9170 S.3       1 <0>        -0.0594
      3 O1          0.4862    3.5769   -0.4114 O.2       1 <0>        -0.1499
      4 O2          1.4134    1.9824   -2.1136 O.2       1 <0>        -0.1499
      5 N1          2.0824    1.7146    0.3874 N.pl3     1 <0>        -0.1938
      6 N2         -3.6535   -1.4406    0.2619 N.pl3     1 <0>        -0.3580
      7 N3          2.5101   -0.4304   -0.6567 N.2       1 <0>        -0.2321
      8 C1         -0.4289    1.1508   -0.4650 C.ar      1 <0>         0.1087
      9 C2         -1.4126    1.5036    0.4590 C.ar      1 <0>        -0.0333
     10 C3         -0.5160   -0.0627   -1.1473 C.ar      1 <0>        -0.0333
     11 C4         -2.5704   -0.5705    0.0185 C.ar      1 <0>         0.0247
     12 C5         -2.4833    0.6429    0.7008 C.ar      1 <0>        -0.0392
     13 C6         -1.5869   -0.9234   -0.9056 C.ar      1 <0>        -0.0392
     14 C7          2.4201    0.3175    0.4334 C.2       1 <0>         0.1774
     15 C8          3.0137   -1.9566    1.0437 C.2       1 <0>        -0.0030
     16 C9          2.8482   -1.7226   -0.3053 C.2       1 <0>         0.0369
     17 H1         -1.3615    2.4399    1.0075 H         1 <0>         0.0638
     18 H2          0.2220   -0.3524   -1.8890 H         1 <0>         0.0638
     19 H3          2.1008    2.1988    1.2933 H         1 <0>         0.1757
     20 H4         -3.2426    0.9282    1.4244 H         1 <0>         0.0636
     21 H5         -1.6462   -1.8640   -1.4472 H         1 <0>         0.0636
     22 H6         -4.3661   -1.1863    0.9331 H         1 <0>         0.1423
     23 H7         -3.7161   -2.3214   -0.2311 H         1 <0>         0.1423
     24 H8          3.2746   -2.8796    1.5411 H         1 <0>         0.0710
     25 H9          2.9620   -2.4670   -1.0816 H         1 <0>         0.0835
@<TRIPOS>BOND
     1    1    3 2
     2    1    4 2
     3    1    5 1
     4    1    8 1
     5    2   14 1
     6    2   15 1
     7    5   14 1
     8    5   19 1
     9    6   11 1
    10    6   22 1
    11    6   23 1
    12    7   14 2
    13    7   16 1
    14    8    9 ar
    15    8   10 ar
    16    9   12 ar
    17    9   17 1
    18   10   13 ar
    19   10   18 1
    20   11   12 ar
    21   11   13 ar
    22   12   20 1
    23   13   21 1
    24   15   16 2
    25   15   24 1
    26   16   25 1
