@<TRIPOS>MOLECULE
DB06781
   70    73     0     0     0
SMALL
USER_CHARGES

@<TRIPOS>ATOM
      1 F1          2.3126   -0.5050    1.4224 F         1 <0>        -0.2377
      2 F2          5.4121   -2.5448   -0.7988 F         1 <0>        -0.2407
      3 O1         -1.8596   -1.1184    0.1962 O.3       1 <0>        -0.4496
      4 O2          1.8060    2.5694   -0.3607 O.3       1 <0>        -0.3886
      5 O3         -3.3152    0.0043   -2.4927 O.2       1 <0>        -0.2895
      6 O4         -4.4365    1.6410   -0.5784 O.3       1 <0>        -0.4570
      7 O5         -3.6693   -2.1697   -0.7746 O.2       1 <0>        -0.2508
      8 O6          6.7243   -0.5352    3.4783 O.2       1 <0>        -0.2879
      9 O7         -4.1994    3.3661    0.9399 O.2       1 <0>        -0.2512
     10 C1         -0.1597    0.2202   -0.9732 C.3       1 <0>         0.0205
     11 C2          0.8322   -0.9633   -0.9539 C.3       1 <0>        -0.0254
     12 C3          2.3034   -0.5246   -0.9327 C.3       1 <0>         0.0030
     13 C4          2.5661    0.3378    0.3499 C.3       1 <0>         0.1528
     14 C5         -1.4948   -0.5682   -1.0663 C.3       1 <0>         0.1796
     15 C6          0.0624    1.0274    0.3206 C.3       1 <0>        -0.0141
     16 C7          0.3456   -1.8512   -2.0968 C.3       1 <0>        -0.0452
     17 C8          1.5254    1.4867    0.5132 C.3       1 <0>         0.0910
     18 C9          4.0869    0.7454    0.4838 C.3       1 <0>         0.0469
     19 C10        -1.1904   -1.7150   -2.0566 C.3       1 <0>        -0.0048
     20 C11         3.2269   -1.7539   -0.9711 C.3       1 <0>        -0.0117
     21 C12        -0.0042    1.1331   -2.2207 C.3       1 <0>        -0.0551
     22 C13         4.6966   -1.3826   -0.8328 C.3       1 <0>         0.1237
     23 C14         4.9162   -0.5452    0.4027 C.2       1 <0>        -0.0198
     24 C15        -2.6811    0.2552   -1.4689 C.2       1 <0>         0.2142
     25 C16         4.5821    1.7050   -0.6228 C.3       1 <0>        -0.0492
     26 C17         4.3207    1.4685    1.8020 C.2       1 <0>        -0.0674
     27 C18         5.7571   -0.9483    1.3683 C.2       1 <0>        -0.0121
     28 C19        -3.0456    1.4007   -0.5488 C.3       1 <0>         0.1542
     29 C20         5.1555    1.0691    2.7661 C.2       1 <0>        -0.0179
     30 C21        -2.9778   -1.9081    0.2000 C.2       1 <0>         0.3080
     31 C22         5.9436   -0.1660    2.6075 C.2       1 <0>         0.1788
     32 C23        -3.2261   -2.4080    1.6049 C.3       1 <0>         0.0447
     33 C24        -4.7131   -2.6121    1.8846 C.3       1 <0>        -0.0458
     34 C25        -4.8915    2.6607    0.2184 C.2       1 <0>         0.3043
     35 C26        -5.4878   -1.3104    1.7585 C.3       1 <0>        -0.0648
     36 C27        -6.3778    2.7998    0.0851 C.3       1 <0>         0.0332
     37 H1          0.6673   -1.5432   -0.0310 H         1 <0>         0.0311
     38 H2          2.5177    0.0704   -1.8258 H         1 <0>         0.0336
     39 H3         -0.5755    1.9165    0.3298 H         1 <0>         0.0298
     40 H4         -0.2139    0.4237    1.1938 H         1 <0>         0.0298
     41 H5          0.7360   -1.5112   -3.0626 H         1 <0>         0.0270
     42 H6          0.6543   -2.8934   -1.9639 H         1 <0>         0.0270
     43 H7          1.5793    1.8723    1.5389 H         1 <0>         0.0626
     44 H8         -1.5952   -2.6881   -1.7648 H         1 <0>         0.0308
     45 H9         -1.5409   -1.5128   -3.0748 H         1 <0>         0.0308
     46 H10         3.0943   -2.3025   -1.9115 H         1 <0>         0.0300
     47 H11         2.9559   -2.4607   -0.1753 H         1 <0>         0.0300
     48 H12        -0.3117    0.6343   -3.1458 H         1 <0>         0.0237
     49 H13        -0.6152    2.0366   -2.1288 H         1 <0>         0.0237
     50 H14         1.0229    1.4658   -2.3826 H         1 <0>         0.0237
     51 H15         5.0367   -0.8375   -1.7193 H         1 <0>         0.0699
     52 H16         4.2485    2.7361   -0.4702 H         1 <0>         0.0242
     53 H17         5.6794    1.7462   -0.6440 H         1 <0>         0.0242
     54 H18         4.2573    1.4013   -1.6221 H         1 <0>         0.0242
     55 H19         3.7836    2.4001    1.9668 H         1 <0>         0.0583
     56 H20         2.2395    3.2650    0.1620 H         1 <0>         0.2099
     57 H21         6.3239   -1.8697    1.2881 H         1 <0>         0.0656
     58 H22        -2.7665    1.1600    0.4808 H         1 <0>         0.0780
     59 H23        -2.5146    2.2960   -0.8846 H         1 <0>         0.0780
     60 H24         5.2811    1.6426    3.6770 H         1 <0>         0.0653
     61 H25        -2.8211   -1.6857    2.3233 H         1 <0>         0.0377
     62 H26        -2.6842   -3.3515    1.7269 H         1 <0>         0.0377
     63 H27        -4.8350   -3.0086    2.8990 H         1 <0>         0.0268
     64 H28        -5.1334   -3.3525    1.1941 H         1 <0>         0.0268
     65 H29        -6.5320   -1.4685    2.0472 H         1 <0>         0.0230
     66 H30        -5.0719   -0.5385    2.4142 H         1 <0>         0.0230
     67 H31        -5.4862   -0.9275    0.7339 H         1 <0>         0.0230
     68 H32        -6.8651    1.8740    0.4016 H         1 <0>         0.0342
     69 H33        -6.7254    3.6143    0.7270 H         1 <0>         0.0342
     70 H34        -6.6358    3.0366   -0.9500 H         1 <0>         0.0342
@<TRIPOS>BOND
     1    1   13 1
     2    2   22 1
     3    3   14 1
     4    3   30 1
     5    4   17 1
     6    4   56 1
     7    5   24 2
     8    6   28 1
     9    6   34 1
    10    7   30 2
    11    8   31 2
    12    9   34 2
    13   10   11 1
    14   10   14 1
    15   10   15 1
    16   10   21 1
    17   11   12 1
    18   11   16 1
    19   11   37 1
    20   12   13 1
    21   12   20 1
    22   12   38 1
    23   13   17 1
    24   13   18 1
    25   14   19 1
    26   14   24 1
    27   15   17 1
    28   15   39 1
    29   15   40 1
    30   16   19 1
    31   16   41 1
    32   16   42 1
    33   17   43 1
    34   18   23 1
    35   18   25 1
    36   18   26 1
    37   19   44 1
    38   19   45 1
    39   20   22 1
    40   20   46 1
    41   20   47 1
    42   21   48 1
    43   21   49 1
    44   21   50 1
    45   22   23 1
    46   22   51 1
    47   23   27 2
    48   24   28 1
    49   25   52 1
    50   25   53 1
    51   25   54 1
    52   26   29 2
    53   26   55 1
    54   27   31 1
    55   27   57 1
    56   28   58 1
    57   28   59 1
    58   29   31 1
    59   29   60 1
    60   30   32 1
    61   32   33 1
    62   32   61 1
    63   32   62 1
    64   33   35 1
    65   33   63 1
    66   33   64 1
    67   34   36 1
    68   35   65 1
    69   35   66 1
    70   35   67 1
    71   36   68 1
    72   36   69 1
    73   36   70 1
