@<TRIPOS>MOLECULE
DB06261
   36    35     0     0     0
SMALL
USER_CHARGES

@<TRIPOS>ATOM
      1 O1         -0.4128   -0.0775   -0.0400 O.3       1 <0>        -0.4646
      2 O2         -1.6495    1.8677    0.0526 O.2       1 <0>        -0.2508
      3 O3         -5.1526   -1.7460   -0.1684 O.2       1 <0>        -0.2960
      4 N1         -7.6898   -0.8601   -0.1067 N.3       1 <0>        -0.3238
      5 C1          3.3096    0.4886    0.0603 C.3       1 <0>        -0.0500
      6 C2          4.5356   -0.4265   -0.0066 C.3       1 <0>        -0.0532
      7 C3          1.9834   -0.2658   -0.0169 C.3       1 <0>        -0.0185
      8 C4          5.8626    0.3265    0.0955 C.3       1 <0>        -0.0559
      9 C5          0.7957    0.6869    0.0202 C.3       1 <0>         0.0925
     10 C6          7.0475   -0.6167   -0.0488 C.3       1 <0>        -0.0653
     11 C7         -2.7452   -0.3016   -0.0951 C.3       1 <0>         0.0516
     12 C8         -4.0902    0.4189   -0.0589 C.3       1 <0>         0.0171
     13 C9         -1.5700    0.6489   -0.0152 C.2       1 <0>         0.3075
     14 C10        -5.2860   -0.5252   -0.0968 C.2       1 <0>         0.1473
     15 C11        -6.6439    0.1508   -0.0503 C.3       1 <0>         0.0524
     16 H1          3.3621    1.2144   -0.7608 H         1 <0>         0.0266
     17 H2          3.3435    1.0643    0.9937 H         1 <0>         0.0266
     18 H3          4.5082   -0.9870   -0.9496 H         1 <0>         0.0265
     19 H4          4.4775   -1.1658    0.8018 H         1 <0>         0.0265
     20 H5          1.9056   -0.9803    0.8117 H         1 <0>         0.0298
     21 H6          1.9405   -0.8645   -0.9351 H         1 <0>         0.0298
     22 H7          5.9231    0.8427    1.0604 H         1 <0>         0.0263
     23 H8          5.9159    1.0922   -0.6870 H         1 <0>         0.0263
     24 H9          0.8084    1.2688    0.9491 H         1 <0>         0.0697
     25 H10         0.8340    1.3709   -0.8358 H         1 <0>         0.0697
     26 H11         7.0386   -1.3801    0.7356 H         1 <0>         0.0230
     27 H12         7.0319   -1.1211   -1.0201 H         1 <0>         0.0230
     28 H13         7.9864   -0.0598    0.0297 H         1 <0>         0.0230
     29 H14        -2.6600   -0.8752   -1.0251 H         1 <0>         0.0382
     30 H15        -2.6783   -0.9974    0.7494 H         1 <0>         0.0382
     31 H16        -4.1652    1.0175    0.8564 H         1 <0>         0.0347
     32 H17        -4.1696    1.0988   -0.9150 H         1 <0>         0.0347
     33 H18        -6.7258    0.7275    0.8756 H         1 <0>         0.0500
     34 H19        -6.7318    0.8208   -0.9103 H         1 <0>         0.0500
     35 H20        -7.6391   -1.4514    0.7222 H         1 <0>         0.1186
     36 H21        -8.6008   -0.4043   -0.0718 H         1 <0>         0.1186
@<TRIPOS>BOND
     1    1    9 1
     2    1   13 1
     3    2   13 2
     4    3   14 2
     5    4   15 1
     6    4   35 1
     7    4   36 1
     8    5    6 1
     9    5    7 1
    10    5   16 1
    11    5   17 1
    12    6    8 1
    13    6   18 1
    14    6   19 1
    15    7    9 1
    16    7   20 1
    17    7   21 1
    18    8   10 1
    19    8   22 1
    20    8   23 1
    21    9   24 1
    22    9   25 1
    23   10   26 1
    24   10   27 1
    25   10   28 1
    26   11   12 1
    27   11   13 1
    28   11   29 1
    29   11   30 1
    30   12   14 1
    31   12   31 1
    32   12   32 1
    33   14   15 1
    34   15   33 1
    35   15   34 1
