@<TRIPOS>MOLECULE
DB06212
   57    60     0     0     0
SMALL
USER_CHARGES

@<TRIPOS>ATOM
      1 Cl1        -8.8909   -1.1341    0.0508 Cl        1 <0>        -0.0835
      2 O1         -4.1690    2.0204   -1.8296 O.3       1 <0>        -0.3871
      3 O2         -2.5497   -1.9504   -1.5957 O.2       1 <0>        -0.2696
      4 O3          3.9718    1.0017   -1.7955 O.2       1 <0>        -0.2698
      5 N1         -2.9905   -0.3066    0.0293 N.am      1 <0>        -0.2671
      6 N2          3.4263   -0.6351   -0.1980 N.am      1 <0>        -0.2815
      7 C1         -3.8959    2.6845    0.4793 C.3       1 <0>        -0.0212
      8 C2         -2.4904    2.0950    0.5537 C.3       1 <0>        -0.0341
      9 C3         -4.8060    2.0191   -0.5508 C.3       1 <0>         0.0820
     10 C4         -2.4926    0.6520    1.0322 C.3       1 <0>         0.0202
     11 C5         -5.2805    0.6249   -0.1932 C.ar      1 <0>         0.0036
     12 C6         -4.4113   -0.4719   -0.0209 C.ar      1 <0>         0.0423
     13 C7         -2.1719   -1.1395   -0.7507 C.2       1 <0>         0.2511
     14 C8         -6.6697    0.3933   -0.1661 C.ar      1 <0>        -0.0360
     15 C9         -4.9480   -1.7632    0.1380 C.ar      1 <0>        -0.0385
     16 C10        -0.7175   -1.0223   -0.5906 C.ar      1 <0>         0.0402
     17 C11        -7.1879   -0.8887    0.0146 C.ar      1 <0>         0.0414
     18 C12        -6.3265   -1.9684    0.1587 C.ar      1 <0>        -0.0416
     19 C13        -0.0346   -1.7963    0.3443 C.ar      1 <0>        -0.0366
     20 C14        -0.0267   -0.1194   -1.3950 C.ar      1 <0>        -0.0476
     21 C15         1.3479   -1.6667    0.4758 C.ar      1 <0>        -0.0368
     22 C16         2.0433   -0.7635   -0.3283 C.ar      1 <0>         0.0340
     23 C17         1.3560    0.0101   -1.2636 C.ar      1 <0>        -0.0397
     24 C18        -0.7547   -2.7713    1.2179 C.3       1 <0>        -0.0389
     25 C19         4.2855    0.2103   -0.9128 C.2       1 <0>         0.2485
     26 C20         5.7259    0.0980   -0.5634 C.ar      1 <0>         0.0399
     27 C21         6.2593    0.8885    0.4336 C.ar      1 <0>        -0.0383
     28 C22         6.4889   -0.8138   -1.2653 C.ar      1 <0>        -0.0494
     29 C23         7.6135    0.7628    0.7427 C.ar      1 <0>        -0.0581
     30 C24         5.4339    1.8755    1.1935 C.3       1 <0>        -0.0390
     31 C25         7.8433   -0.9396   -0.9561 C.ar      1 <0>        -0.0610
     32 C26         8.4057   -0.1513    0.0479 C.ar      1 <0>        -0.0615
     33 H1         -3.7832    3.7415    0.2046 H         1 <0>         0.0294
     34 H2         -4.3657    2.6621    1.4705 H         1 <0>         0.0294
     35 H3         -1.9845    2.1802   -0.4147 H         1 <0>         0.0281
     36 H4         -1.9100    2.6955    1.2649 H         1 <0>         0.0281
     37 H5         -5.6822    2.6706   -0.6580 H         1 <0>         0.0644
     38 H6         -1.4728    0.3883    1.3235 H         1 <0>         0.0469
     39 H7         -3.0935    0.5447    1.9448 H         1 <0>         0.0469
     40 H8         -7.3555    1.2270   -0.3087 H         1 <0>         0.0636
     41 H9         -4.2970   -2.6218    0.2880 H         1 <0>         0.0637
     42 H10        -4.6278    1.3828   -2.4025 H         1 <0>         0.2102
     43 H11        -6.7110   -2.9752    0.2991 H         1 <0>         0.0633
     44 H12        -0.5533    0.4880   -2.1267 H         1 <0>         0.0626
     45 H13         1.8867   -2.2681    1.2045 H         1 <0>         0.0639
     46 H14         1.8216    0.7303   -1.9213 H         1 <0>         0.0636
     47 H15        -1.4512   -2.2507    1.8828 H         1 <0>         0.0278
     48 H16        -1.3070   -3.4970    0.6119 H         1 <0>         0.0278
     49 H17        -0.0634   -3.3400    1.8495 H         1 <0>         0.0278
     50 H18         3.8564   -1.2354    0.5028 H         1 <0>         0.1551
     51 H19         6.0575   -1.4308   -2.0481 H         1 <0>         0.0625
     52 H20         8.0680    1.3685    1.5223 H         1 <0>         0.0620
     53 H21         4.9738    2.5985    0.5119 H         1 <0>         0.0278
     54 H22         6.0367    2.4450    1.9093 H         1 <0>         0.0278
     55 H23         4.6502    1.3630    1.7610 H         1 <0>         0.0278
     56 H24         8.4602   -1.6514   -1.4970 H         1 <0>         0.0618
     57 H25         9.4602   -0.2495    0.2885 H         1 <0>         0.0618
@<TRIPOS>BOND
     1    1   17 1
     2    2    9 1
     3    2   42 1
     4    3   13 2
     5    4   25 2
     6    5   10 1
     7    5   12 1
     8    5   13 am
     9    6   22 1
    10    6   25 am
    11    6   50 1
    12    7    8 1
    13    7    9 1
    14    7   33 1
    15    7   34 1
    16    8   10 1
    17    8   35 1
    18    8   36 1
    19    9   11 1
    20    9   37 1
    21   10   38 1
    22   10   39 1
    23   11   12 ar
    24   11   14 ar
    25   12   15 ar
    26   13   16 1
    27   14   17 ar
    28   14   40 1
    29   15   18 ar
    30   15   41 1
    31   16   19 ar
    32   16   20 ar
    33   17   18 ar
    34   18   43 1
    35   19   21 ar
    36   19   24 1
    37   20   23 ar
    38   20   44 1
    39   21   22 ar
    40   21   45 1
    41   22   23 ar
    42   23   46 1
    43   24   47 1
    44   24   48 1
    45   24   49 1
    46   25   26 1
    47   26   27 ar
    48   26   28 ar
    49   27   29 ar
    50   27   30 1
    51   28   31 ar
    52   28   51 1
    53   29   32 ar
    54   29   52 1
    55   30   53 1
    56   30   54 1
    57   30   55 1
    58   31   32 ar
    59   31   56 1
    60   32   57 1
