@<TRIPOS>MOLECULE
DB06403
   50    52     0     0     0
SMALL
USER_CHARGES

@<TRIPOS>ATOM
      1 O1         -2.1402    0.7072   -1.7455 O.3       1 <0>        -0.3630
      2 O2          0.5831    0.4403    0.6992 O.3       1 <0>        -0.4439
      3 O3          0.0586    2.7286   -1.9385 O.3       1 <0>        -0.4780
      4 O4         -0.1036    3.1051    0.2918 O.2       1 <0>        -0.2467
      5 N1          2.5723    1.0830   -0.2961 N.ar      1 <0>        -0.2002
      6 N2          2.5215   -0.5816    1.4456 N.ar      1 <0>        -0.2002
      7 C1         -1.5590    0.2421   -0.5083 C.3       1 <0>         0.1661
      8 C2         -0.1032    0.8062   -0.4887 C.3       1 <0>         0.2356
      9 C3         -2.3627    0.8076    0.6769 C.ar      1 <0>        -0.0073
     10 C4         -1.6796   -1.2903   -0.5992 C.ar      1 <0>        -0.0073
     11 C5         -2.0399    0.3846    1.9410 C.ar      1 <0>        -0.0554
     12 C6         -2.9270   -1.8345   -0.7687 C.ar      1 <0>        -0.0554
     13 C7         -3.3637    1.7071    0.4125 C.ar      1 <0>        -0.0554
     14 C8         -0.5341   -2.0385   -0.5061 C.ar      1 <0>        -0.0554
     15 C9         -0.0605    2.3228   -0.6500 C.2       1 <0>         0.3497
     16 C10        -1.4232    0.2040   -2.8542 C.3       1 <0>         0.0382
     17 C11        -2.7684    0.8969    3.0147 C.ar      1 <0>        -0.0614
     18 C12        -3.0363   -3.2226   -0.8507 C.ar      1 <0>        -0.0614
     19 C13        -4.0919    2.2194    1.4863 C.ar      1 <0>        -0.0614
     20 C14        -0.6432   -3.4267   -0.5883 C.ar      1 <0>        -0.0614
     21 C15        -3.7942    1.8144    2.7874 C.ar      1 <0>        -0.0617
     22 C16        -1.8945   -4.0188   -0.7607 C.ar      1 <0>        -0.0617
     23 C17         1.9453    0.3087    0.6126 C.ar      1 <0>         0.3193
     24 C18         3.9113    0.9282   -0.3539 C.ar      1 <0>         0.0453
     25 C19         3.8619   -0.6854    1.3342 C.ar      1 <0>         0.0453
     26 C20         4.6168    0.0507    0.4439 C.ar      1 <0>        -0.0193
     27 C21         4.6403    1.7661   -1.3501 C.3       1 <0>        -0.0221
     28 C22         4.5359   -1.6630    2.2378 C.3       1 <0>        -0.0221
     29 H1          0.4707    0.3929   -1.3265 H         1 <0>         0.0890
     30 H2         -1.2642   -0.3459    2.1415 H         1 <0>         0.0621
     31 H3         -3.8237   -1.2277   -0.8434 H         1 <0>         0.0621
     32 H4         -3.6205    2.0501   -0.5833 H         1 <0>         0.0621
     33 H5          0.4654   -1.6495   -0.4079 H         1 <0>         0.0621
     34 H6         -1.3070   -0.8808   -2.9054 H         1 <0>         0.0524
     35 H7         -0.4688    0.6956   -3.0433 H         1 <0>         0.0524
     36 H8         -2.0299    0.4552   -3.7330 H         1 <0>         0.0524
     37 H9         -2.5407    0.5772    4.0275 H         1 <0>         0.0618
     38 H10        -4.0103   -3.6836   -0.9860 H         1 <0>         0.0618
     39 H11        -4.8900    2.9346    1.3098 H         1 <0>         0.0618
     40 H12         0.2462   -4.0471   -0.5262 H         1 <0>         0.0618
     41 H13        -4.3620    2.2125    3.6233 H         1 <0>         0.0618
     42 H14        -1.9793   -5.0995   -0.8268 H         1 <0>         0.0618
     43 H15         0.0957    3.7060   -2.0126 H         1 <0>         0.2952
     44 H16         5.6926   -0.0540    0.3752 H         1 <0>         0.0653
     45 H17         5.1613    1.1308   -2.0734 H         1 <0>         0.0293
     46 H18         3.9485    2.4102   -1.9031 H         1 <0>         0.0293
     47 H19         5.3699    2.4083   -0.8466 H         1 <0>         0.0293
     48 H20         5.2612   -1.1518    2.8788 H         1 <0>         0.0293
     49 H21         3.8095   -2.1662    2.8847 H         1 <0>         0.0293
     50 H22         5.0533   -2.4290    1.6517 H         1 <0>         0.0293
@<TRIPOS>BOND
     1    1    7 1
     2    1   16 1
     3    2    8 1
     4    2   23 1
     5    3   15 1
     6    3   43 1
     7    4   15 2
     8    5   23 ar
     9    5   24 ar
    10    6   23 ar
    11    6   25 ar
    12    7    8 1
    13    7    9 1
    14    7   10 1
    15    8   15 1
    16    8   29 1
    17    9   11 ar
    18    9   13 ar
    19   10   12 ar
    20   10   14 ar
    21   11   17 ar
    22   11   30 1
    23   12   18 ar
    24   12   31 1
    25   13   19 ar
    26   13   32 1
    27   14   20 ar
    28   14   33 1
    29   16   34 1
    30   16   35 1
    31   16   36 1
    32   17   21 ar
    33   17   37 1
    34   18   22 ar
    35   18   38 1
    36   19   21 ar
    37   19   39 1
    38   20   22 ar
    39   20   40 1
    40   21   41 1
    41   22   42 1
    42   24   26 ar
    43   24   27 1
    44   25   26 ar
    45   25   28 1
    46   26   44 1
    47   27   45 1
    48   27   46 1
    49   27   47 1
    50   28   48 1
    51   28   49 1
    52   28   50 1
