@<TRIPOS>MOLECULE
DB06594
   35    36     0     0     0
SMALL
USER_CHARGES

@<TRIPOS>ATOM
      1 O1         -2.1475    2.7310    0.2144 O.3       1 <0>        -0.4951
      2 O2          2.8491    2.1453   -0.3537 O.2       1 <0>        -0.2761
      3 N1          3.4626   -0.1009   -0.3899 N.am      1 <0>        -0.3152
      4 C1          0.0399   -1.5809    0.3546 C.ar      1 <0>        -0.0381
      5 C2          1.3851   -0.9771    0.6149 C.3       1 <0>        -0.0115
      6 C3         -1.1129   -0.7934    0.2013 C.ar      1 <0>        -0.0112
      7 C4         -2.3553   -1.4256   -0.0429 C.ar      1 <0>        -0.0174
      8 C5          2.1654   -0.6589   -0.6637 C.3       1 <0>         0.0156
      9 C6         -0.0312   -2.9715    0.2687 C.ar      1 <0>        -0.0579
     10 C7         -1.0595    0.6075    0.2845 C.ar      1 <0>        -0.0120
     11 C8         -2.4083   -2.8265   -0.1263 C.ar      1 <0>        -0.0540
     12 C9         -3.5080   -0.6381   -0.1962 C.ar      1 <0>        -0.0506
     13 C10        -1.2531   -3.5933    0.0287 C.ar      1 <0>        -0.0609
     14 C11        -2.2149    1.3742    0.1296 C.ar      1 <0>         0.1207
     15 C12        -3.4366    0.7526   -0.1105 C.ar      1 <0>        -0.0194
     16 C13         3.6959    1.2610   -0.2574 C.2       1 <0>         0.2099
     17 C14         5.1360    1.5706    0.0524 C.3       1 <0>         0.0121
     18 C15        -3.3667    3.4532    0.0479 C.3       1 <0>         0.0788
     19 H1          1.9803   -1.6818    1.2145 H         1 <0>         0.0328
     20 H2          1.3206   -0.0990    1.2673 H         1 <0>         0.0328
     21 H3          2.3251   -1.5696   -1.2521 H         1 <0>         0.0465
     22 H4          1.6042    0.0434   -1.2906 H         1 <0>         0.0465
     23 H5          0.8587   -3.5850    0.3836 H         1 <0>         0.0620
     24 H6         -0.1308    1.1440    0.4553 H         1 <0>         0.0660
     25 H7         -3.3525   -3.3339   -0.3133 H         1 <0>         0.0624
     26 H8         -4.4733   -1.1037   -0.3844 H         1 <0>         0.0625
     27 H9         -1.3079   -4.6759   -0.0390 H         1 <0>         0.0618
     28 H10        -4.3717    1.2867   -0.2405 H         1 <0>         0.0654
     29 H11         4.2379   -0.7469   -0.2726 H         1 <0>         0.1487
     30 H12         5.3224    2.6382   -0.0932 H         1 <0>         0.0322
     31 H13         5.3493    1.3053    1.0913 H         1 <0>         0.0322
     32 H14         5.7982    1.0070   -0.6112 H         1 <0>         0.0322
     33 H15        -3.1278    4.5173    0.1462 H         1 <0>         0.0660
     34 H16        -4.0876    3.2135    0.8368 H         1 <0>         0.0660
     35 H17        -3.7851    3.3111   -0.9543 H         1 <0>         0.0660
@<TRIPOS>BOND
     1    1   14 1
     2    1   18 1
     3    2   16 2
     4    3    8 1
     5    3   16 am
     6    3   29 1
     7    4    5 1
     8    4    6 ar
     9    4    9 ar
    10    5    8 1
    11    5   19 1
    12    5   20 1
    13    6    7 ar
    14    6   10 ar
    15    7   11 ar
    16    7   12 ar
    17    8   21 1
    18    8   22 1
    19    9   13 ar
    20    9   23 1
    21   10   14 ar
    22   10   24 1
    23   11   13 ar
    24   11   25 1
    25   12   15 ar
    26   12   26 1
    27   13   27 1
    28   14   15 ar
    29   15   28 1
    30   16   17 1
    31   17   30 1
    32   17   31 1
    33   17   32 1
    34   18   33 1
    35   18   34 1
    36   18   35 1
