@<TRIPOS>MOLECULE
DB06706
   29    28     0     0     0
SMALL
USER_CHARGES

@<TRIPOS>ATOM
      1 N1         -1.5071   -0.8395   -0.6167 N.3       1 <0>        -0.3165
      2 C1         -1.4991    0.3162    0.2807 C.3       1 <0>         0.0048
      3 C2         -0.9579    1.5650   -0.4395 C.3       1 <0>        -0.0344
      4 C3          0.4394    1.4027   -1.0554 C.3       1 <0>        -0.0331
      5 C4         -2.9149    0.5705    0.7991 C.3       1 <0>        -0.0497
      6 C5          1.4998    1.1238   -0.0273 C.2       1 <0>        -0.0852
      7 C6          2.3197    0.0588    0.0572 C.2       1 <0>        -0.0796
      8 C7         -1.9620   -2.0308    0.0825 C.3       1 <0>        -0.0156
      9 C8          3.3356   -0.0317    1.1654 C.3       1 <0>        -0.0440
     10 C9          2.3254   -1.1141   -0.8813 C.3       1 <0>        -0.0440
     11 H1         -0.8478    0.1112    1.1396 H         1 <0>         0.0458
     12 H2         -0.9424    2.4064    0.2664 H         1 <0>         0.0283
     13 H3         -1.6507    1.8536   -1.2416 H         1 <0>         0.0283
     14 H4          0.7038    2.3448   -1.5524 H         1 <0>         0.0308
     15 H5          0.4113    0.6523   -1.8489 H         1 <0>         0.0308
     16 H6         -3.2510   -0.2052    1.4944 H         1 <0>         0.0245
     17 H7         -2.9516    1.5159    1.3530 H         1 <0>         0.0245
     18 H8         -3.6412    0.6442   -0.0184 H         1 <0>         0.0245
     19 H9         -2.1093   -0.6611   -1.4196 H         1 <0>         0.1219
     20 H10         1.6058    1.9073    0.7225 H         1 <0>         0.0571
     21 H11        -1.7600   -2.9037   -0.5472 H         1 <0>         0.0388
     22 H12        -3.0395   -2.0249    0.2717 H         1 <0>         0.0388
     23 H13        -1.4236   -2.1873    1.0235 H         1 <0>         0.0388
     24 H14         4.3462   -0.0947    0.7487 H         1 <0>         0.0274
     25 H15         3.1538   -0.9237    1.7740 H         1 <0>         0.0274
     26 H16         3.3056    0.8363    1.8325 H         1 <0>         0.0274
     27 H17         2.1318   -2.0384   -0.3262 H         1 <0>         0.0274
     28 H18         1.5760   -1.0508   -1.6719 H         1 <0>         0.0274
     29 H19         3.3039   -1.2027   -1.3650 H         1 <0>         0.0274
@<TRIPOS>BOND
     1    1    2 1
     2    1    8 1
     3    1   19 1
     4    2    3 1
     5    2    5 1
     6    2   11 1
     7    3    4 1
     8    3   12 1
     9    3   13 1
    10    4    6 1
    11    4   14 1
    12    4   15 1
    13    5   16 1
    14    5   17 1
    15    5   18 1
    16    6    7 2
    17    6   20 1
    18    7    9 1
    19    7   10 1
    20    8   21 1
    21    8   22 1
    22    8   23 1
    23    9   24 1
    24    9   25 1
    25    9   26 1
    26   10   27 1
    27   10   28 1
    28   10   29 1
