@<TRIPOS>MOLECULE
DB06637
   13    13     0     0     0
SMALL
USER_CHARGES

@<TRIPOS>ATOM
      1 N1         -2.0891   -0.0001    0.0004 N.pl3     1 <0>        -0.3579
      2 N2          2.1158    0.0002    0.0000 N.ar      1 <0>        -0.2631
      3 C1         -0.6795   -0.0002   -0.0001 C.ar      1 <0>         0.0274
      4 C2          0.0184    1.2026   -0.0001 C.ar      1 <0>        -0.0229
      5 C3          0.0186   -1.2026   -0.0000 C.ar      1 <0>        -0.0229
      6 C4          1.4029    1.1489    0.0001 C.ar      1 <0>         0.0293
      7 C5          1.4032   -1.1487   -0.0000 C.ar      1 <0>         0.0293
      8 H1         -0.4941    2.1588   -0.0001 H         1 <0>         0.0651
      9 H2         -0.4937   -2.1588   -0.0000 H         1 <0>         0.0651
     10 H3          1.9941    2.0588    0.0001 H         1 <0>         0.0830
     11 H4          1.9944   -2.0586    0.0000 H         1 <0>         0.0830
     12 H5         -2.5955   -0.8756   -0.0001 H         1 <0>         0.1423
     13 H6         -2.5955    0.8753   -0.0001 H         1 <0>         0.1423
@<TRIPOS>BOND
     1    1    3 1
     2    1   12 1
     3    1   13 1
     4    2    6 ar
     5    2    7 ar
     6    3    4 ar
     7    3    5 ar
     8    4    6 ar
     9    4    8 1
    10    5    7 ar
    11    5    9 1
    12    6   10 1
    13    7   11 1
