@<TRIPOS>MOLECULE
DB06202
   62    66     0     0     0
SMALL
USER_CHARGES

@<TRIPOS>ATOM
      1 O1         -2.1328    1.9114   -0.0193 O.3       1 <0>        -0.4907
      2 O2          7.0665    3.7198    0.0571 O.3       1 <0>        -0.5068
      3 N1         -5.5561    0.6130   -0.4282 N.3       1 <0>        -0.2991
      4 C1          3.3210   -1.5625   -0.1267 C.3       1 <0>        -0.0047
      5 C2          3.0498   -0.2664    0.7010 C.3       1 <0>         0.0163
      6 C3          3.7289   -1.2260   -1.5703 C.3       1 <0>        -0.0413
      7 C4          4.1474    0.7756    0.5071 C.ar      1 <0>        -0.0360
      8 C5          5.0126   -0.3982   -1.5873 C.3       1 <0>        -0.0267
      9 C6          5.0328    0.7284   -0.5863 C.ar      1 <0>        -0.0401
     10 C7          1.6513    0.3209    0.5069 C.ar      1 <0>        -0.0392
     11 C8          2.2147   -2.6002   -0.0020 C.ar      1 <0>        -0.0434
     12 C9          4.2623    1.8260    1.4363 C.ar      1 <0>        -0.0543
     13 C10        -6.6882    0.9676   -1.2837 C.3       1 <0>        -0.0010
     14 C11        -6.0720    0.6962    0.9380 C.3       1 <0>        -0.0010
     15 C12        -7.8489    0.2265   -0.6367 C.3       1 <0>        -0.0390
     16 C13        -7.4454    0.0513    0.8241 C.3       1 <0>        -0.0390
     17 C14         6.0144    1.7239   -0.7205 C.ar      1 <0>        -0.0167
     18 C15         1.4544    1.3222   -0.4346 C.ar      1 <0>        -0.0545
     19 C16         0.5959   -0.1536    1.2745 C.ar      1 <0>        -0.0545
     20 C17        -4.4059    1.4787   -0.6416 C.3       1 <0>         0.0331
     21 C18         2.1706   -3.4352    1.1114 C.ar      1 <0>        -0.0583
     22 C19         1.2522   -2.7101   -1.0023 C.ar      1 <0>        -0.0583
     23 C20         5.2362    2.8121    1.2848 C.ar      1 <0>        -0.0199
     24 C21         6.1117    2.7614    0.2057 C.ar      1 <0>         0.1171
     25 C22        -3.2402    1.0483    0.2346 C.3       1 <0>         0.1022
     26 C23         0.1791    1.8587   -0.6119 C.ar      1 <0>        -0.0197
     27 C24        -0.6795    0.3826    1.0972 C.ar      1 <0>        -0.0197
     28 C25        -0.8880    1.3887    0.1539 C.ar      1 <0>         0.1206
     29 C26         1.1568   -4.3865    1.2255 C.ar      1 <0>        -0.0615
     30 C27         0.2382   -3.6613   -0.8881 C.ar      1 <0>        -0.0615
     31 C28         0.1906   -4.4994    0.2258 C.ar      1 <0>        -0.0617
     32 H1          4.2145   -2.0359    0.3130 H         1 <0>         0.0358
     33 H2          3.1184   -0.5622    1.7603 H         1 <0>         0.0403
     34 H3          3.8871   -2.1390   -2.1576 H         1 <0>         0.0274
     35 H4          2.9392   -0.6573   -2.0757 H         1 <0>         0.0274
     36 H5          5.1572    0.0008   -2.5987 H         1 <0>         0.0313
     37 H6          5.8641   -1.0557   -1.3698 H         1 <0>         0.0313
     38 H7          3.5873    1.8808    2.2873 H         1 <0>         0.0622
     39 H8         -6.5371    0.6527   -2.3210 H         1 <0>         0.0427
     40 H9         -6.8851    2.0474   -1.2709 H         1 <0>         0.0427
     41 H10        -6.1775    1.7359    1.2737 H         1 <0>         0.0427
     42 H11        -5.4579    0.1516    1.6618 H         1 <0>         0.0427
     43 H12        -7.9914   -0.7558   -1.1022 H         1 <0>         0.0278
     44 H13        -8.7860    0.7838   -0.7348 H         1 <0>         0.0278
     45 H14        -8.1659    0.5197    1.5023 H         1 <0>         0.0278
     46 H15        -7.3975   -1.0162    1.0695 H         1 <0>         0.0278
     47 H16         6.7126    1.6859   -1.5543 H         1 <0>         0.0657
     48 H17         2.2551    1.6987   -1.0630 H         1 <0>         0.0622
     49 H18         0.7455   -0.9198    2.0293 H         1 <0>         0.0622
     50 H19        -4.0895    1.4275   -1.6914 H         1 <0>         0.0460
     51 H20        -4.6433    2.5338   -0.4502 H         1 <0>         0.0460
     52 H21         2.9161   -3.3549    1.8978 H         1 <0>         0.0620
     53 H22         1.2488   -2.0666   -1.8757 H         1 <0>         0.0620
     54 H23         5.3007    3.6123    2.0169 H         1 <0>         0.0654
     55 H24        -3.4857    1.1331    1.2984 H         1 <0>         0.0709
     56 H25        -2.9989    0.0038   -0.0050 H         1 <0>         0.0709
     57 H26         0.0214    2.6390   -1.3515 H         1 <0>         0.0654
     58 H27        -1.4751    0.0099    1.7354 H         1 <0>         0.0654
     59 H28         1.1190   -5.0384    2.0932 H         1 <0>         0.0618
     60 H29        -0.5166   -3.7468   -1.6644 H         1 <0>         0.0618
     61 H30        -0.5998   -5.2390    0.3155 H         1 <0>         0.0618
     62 H31         6.9898    4.3573    0.7876 H         1 <0>         0.2921
@<TRIPOS>BOND
     1    1   25 1
     2    1   28 1
     3    2   24 1
     4    2   62 1
     5    3   13 1
     6    3   14 1
     7    3   20 1
     8    4    5 1
     9    4    6 1
    10    4   11 1
    11    4   32 1
    12    5    7 1
    13    5   10 1
    14    5   33 1
    15    6    8 1
    16    6   34 1
    17    6   35 1
    18    7    9 ar
    19    7   12 ar
    20    8    9 1
    21    8   36 1
    22    8   37 1
    23    9   17 ar
    24   10   18 ar
    25   10   19 ar
    26   11   21 ar
    27   11   22 ar
    28   12   23 ar
    29   12   38 1
    30   13   15 1
    31   13   39 1
    32   13   40 1
    33   14   16 1
    34   14   41 1
    35   14   42 1
    36   15   16 1
    37   15   43 1
    38   15   44 1
    39   16   45 1
    40   16   46 1
    41   17   24 ar
    42   17   47 1
    43   18   26 ar
    44   18   48 1
    45   19   27 ar
    46   19   49 1
    47   20   25 1
    48   20   50 1
    49   20   51 1
    50   21   29 ar
    51   21   52 1
    52   22   30 ar
    53   22   53 1
    54   23   24 ar
    55   23   54 1
    56   25   55 1
    57   25   56 1
    58   26   28 ar
    59   26   57 1
    60   27   28 ar
    61   27   58 1
    62   29   31 ar
    63   29   59 1
    64   30   31 ar
    65   30   60 1
    66   31   61 1
