@<TRIPOS>MOLECULE
DB06780
   59    62     0     0     0
SMALL
USER_CHARGES

@<TRIPOS>ATOM
      1 O1          4.2439    1.4489   -0.9508 O.2       1 <0>        -0.2935
      2 O2          5.6754   -0.6096    0.0147 O.3       1 <0>        -0.4571
      3 O3         -6.8146   -1.5869    1.4730 O.2       1 <0>        -0.2927
      4 O4          6.0518   -2.3897    1.4383 O.2       1 <0>        -0.2512
      5 C1          0.0922    1.5008    0.4013 C.3       1 <0>        -0.0318
      6 C2          1.2084    0.5725   -0.1233 C.3       1 <0>        -0.0194
      7 C3         -1.2900    1.1478   -0.1579 C.3       1 <0>        -0.0338
      8 C4         -1.6388   -0.3177    0.2513 C.3       1 <0>        -0.0288
      9 C5         -3.0678   -0.7676   -0.2430 C.3       1 <0>        -0.0072
     10 C6          2.4243    1.2276    0.5685 C.3       1 <0>         0.0266
     11 C7          0.8907   -0.8529    0.3481 C.3       1 <0>        -0.0464
     12 C8         -0.5024   -1.3091   -0.1217 C.3       1 <0>        -0.0486
     13 C9          0.6538    2.8984    0.1624 C.3       1 <0>        -0.0488
     14 C10         2.1580    2.7429    0.4507 C.3       1 <0>        -0.0426
     15 C11        -2.3665    2.1093    0.3612 C.3       1 <0>        -0.0459
     16 C12         1.3683    0.5918   -1.6659 C.3       1 <0>        -0.0587
     17 C13        -4.1016    0.2996    0.1396 C.2       1 <0>        -0.0601
     18 C14        -3.7432    1.7336   -0.1717 C.3       1 <0>        -0.0305
     19 C15        -3.4195   -2.1192    0.4443 C.3       1 <0>        -0.0367
     20 C16        -3.1159   -0.9579   -1.7759 C.3       1 <0>        -0.0556
     21 C17         3.7496    0.8346   -0.0066 C.2       1 <0>         0.1740
     22 C18        -4.8939   -2.4813    0.3589 C.3       1 <0>         0.0107
     23 C19        -5.2903    0.0261    0.7029 C.2       1 <0>        -0.0194
     24 C20        -5.7403   -1.3684    0.9165 C.2       1 <0>         0.1561
     25 C21         4.4350   -0.3514    0.6379 C.3       1 <0>         0.1504
     26 C22         6.3945   -1.6662    0.5130 C.2       1 <0>         0.3043
     27 C23         7.6802   -1.8207   -0.2412 C.3       1 <0>         0.0332
     28 H1          0.0285    1.3823    1.4963 H         1 <0>         0.0309
     29 H2         -1.2700    1.2334   -1.2497 H         1 <0>         0.0307
     30 H3         -1.6777   -0.3189    1.3531 H         1 <0>         0.0312
     31 H4          2.4338    0.9786    1.6386 H         1 <0>         0.0384
     32 H5          0.9274   -0.9072    1.4436 H         1 <0>         0.0271
     33 H6          1.6370   -1.5625   -0.0253 H         1 <0>         0.0271
     34 H7         -0.4781   -1.4689   -1.2042 H         1 <0>         0.0268
     35 H8         -0.6980   -2.2884    0.3288 H         1 <0>         0.0268
     36 H9          0.1989    3.6444    0.8220 H         1 <0>         0.0268
     37 H10         0.4915    3.2255   -0.8705 H         1 <0>         0.0268
     38 H11         2.7387    3.2413   -0.3325 H         1 <0>         0.0272
     39 H12         2.4163    3.2371    1.3947 H         1 <0>         0.0272
     40 H13        -2.1381    3.1355    0.0510 H         1 <0>         0.0271
     41 H14        -2.3810    2.1045    1.4588 H         1 <0>         0.0271
     42 H15         1.6550    1.5774   -2.0459 H         1 <0>         0.0235
     43 H16         2.1408   -0.1178   -1.9845 H         1 <0>         0.0235
     44 H17         0.4521    0.3071   -2.1898 H         1 <0>         0.0235
     45 H18        -3.7675    1.8781   -1.2589 H         1 <0>         0.0310
     46 H19        -4.4820    2.4286    0.2462 H         1 <0>         0.0310
     47 H20        -3.1438   -2.0715    1.5071 H         1 <0>         0.0278
     48 H21        -2.8357   -2.9391    0.0091 H         1 <0>         0.0278
     49 H22        -2.7441   -0.0813   -2.3150 H         1 <0>         0.0238
     50 H23        -2.5171   -1.8176   -2.0947 H         1 <0>         0.0238
     51 H24        -4.1391   -1.1353   -2.1274 H         1 <0>         0.0238
     52 H25        -5.0759   -3.3860    0.9498 H         1 <0>         0.0345
     53 H26        -5.2062   -2.6791   -0.6712 H         1 <0>         0.0345
     54 H27        -5.9910    0.8095    0.9715 H         1 <0>         0.0652
     55 H28         3.7902   -1.2283    0.5397 H         1 <0>         0.0778
     56 H29         4.5989   -0.1162    1.6951 H         1 <0>         0.0778
     57 H30         8.2832   -0.9156   -0.1335 H         1 <0>         0.0342
     58 H31         7.4693   -2.0198   -1.2950 H         1 <0>         0.0342
     59 H32         8.2422   -2.6651    0.1679 H         1 <0>         0.0342
@<TRIPOS>BOND
     1    1   21 2
     2    2   25 1
     3    2   26 1
     4    3   24 2
     5    4   26 2
     6    5    6 1
     7    5    7 1
     8    5   13 1
     9    5   28 1
    10    6   10 1
    11    6   11 1
    12    6   16 1
    13    7    8 1
    14    7   15 1
    15    7   29 1
    16    8    9 1
    17    8   12 1
    18    8   30 1
    19    9   17 1
    20    9   19 1
    21    9   20 1
    22   10   14 1
    23   10   21 1
    24   10   31 1
    25   11   12 1
    26   11   32 1
    27   11   33 1
    28   12   34 1
    29   12   35 1
    30   13   14 1
    31   13   36 1
    32   13   37 1
    33   14   38 1
    34   14   39 1
    35   15   18 1
    36   15   40 1
    37   15   41 1
    38   16   42 1
    39   16   43 1
    40   16   44 1
    41   17   18 1
    42   17   23 2
    43   18   45 1
    44   18   46 1
    45   19   22 1
    46   19   47 1
    47   19   48 1
    48   20   49 1
    49   20   50 1
    50   20   51 1
    51   21   25 1
    52   22   24 1
    53   22   52 1
    54   22   53 1
    55   23   24 1
    56   23   54 1
    57   25   55 1
    58   25   56 1
    59   26   27 1
    60   27   57 1
    61   27   58 1
    62   27   59 1
