@<TRIPOS>MOLECULE
DB06203
   46    48     0     0     0
SMALL
USER_CHARGES

@<TRIPOS>ATOM
      1 O1         -3.2505    1.3496   -1.3878 O.2       1 <0>        -0.2462
      2 O2         -0.8870    4.3785    1.2393 O.2       1 <0>        -0.2675
      3 N1          1.1600    0.3610    0.0718 N.pl3     1 <0>        -0.3148
      4 N2         -1.0928    0.8325   -0.6919 N.am      1 <0>        -0.2770
      5 N3          4.6158    0.4874   -1.3416 N.3       1 <0>        -0.3259
      6 N4         -2.1156    2.9018   -0.0945 N.am      1 <0>        -0.2639
      7 N5         -1.1057   -3.5196   -3.3481 N.1       1 <0>        -0.1909
      8 C1          3.5719    0.5617   -0.3209 C.3       1 <0>         0.0207
      9 C2          2.1955    0.3522   -0.9651 C.3       1 <0>         0.0286
     10 C3          3.8207   -0.4754    0.7829 C.3       1 <0>        -0.0349
     11 C4          2.6848   -0.4534    1.8060 C.3       1 <0>        -0.0357
     12 C5          1.3266   -0.6343    1.1316 C.3       1 <0>         0.0136
     13 C6          0.0698    1.1790    0.0056 C.2       1 <0>         0.1107
     14 C7          0.1225    2.3626    0.6396 C.2       1 <0>         0.0414
     15 C8         -1.1341   -0.4639   -1.3733 C.3       1 <0>         0.0554
     16 C9         -2.2266    1.6665   -0.7726 C.2       1 <0>         0.3333
     17 C10        -1.0004    3.3172    0.6296 C.2       1 <0>         0.2581
     18 C11        -1.6651   -1.5499   -0.4829 C.ar      1 <0>        -0.0102
     19 C12        -3.2702    3.7919   -0.1571 C.3       1 <0>         0.0196
     20 C13        -1.7871   -2.8601   -0.9355 C.ar      1 <0>         0.0566
     21 C14        -2.0363   -1.2151    0.8162 C.ar      1 <0>        -0.0556
     22 C15        -2.2846   -3.8446   -0.0818 C.ar      1 <0>        -0.0440
     23 C16        -2.5336   -2.1996    1.6701 C.ar      1 <0>        -0.0614
     24 C17        -2.6578   -3.5142    1.2211 C.ar      1 <0>        -0.0605
     25 C18        -1.4110   -3.2244   -2.2676 C.1       1 <0>         0.0995
     26 H1          3.6065    1.5620    0.1292 H         1 <0>         0.0474
     27 H2          2.0057    1.1385   -1.7076 H         1 <0>         0.0479
     28 H3          2.1628   -0.6066   -1.4988 H         1 <0>         0.0479
     29 H4          4.7725   -0.2722    1.2881 H         1 <0>         0.0281
     30 H5          3.8954   -1.4816    0.3501 H         1 <0>         0.0281
     31 H6          2.8388   -1.2438    2.5490 H         1 <0>         0.0281
     32 H7          2.7027    0.5033    2.3431 H         1 <0>         0.0281
     33 H8          1.2486   -1.6415    0.7050 H         1 <0>         0.0464
     34 H9          0.5450   -0.5383    1.8937 H         1 <0>         0.0464
     35 H10         4.4161    1.1548   -2.0857 H         1 <0>         0.1185
     36 H11         4.6065   -0.4333   -1.7793 H         1 <0>         0.1185
     37 H12         1.0076    2.6656    1.1924 H         1 <0>         0.0706
     38 H13        -0.1495   -0.7239   -1.7713 H         1 <0>         0.0544
     39 H14        -1.8023   -0.3711   -2.2387 H         1 <0>         0.0544
     40 H15        -4.1300    3.2819    0.2891 H         1 <0>         0.0458
     41 H16        -3.5002    3.9992   -1.2071 H         1 <0>         0.0458
     42 H17        -3.0963    4.7343    0.3677 H         1 <0>         0.0458
     43 H18        -1.9791   -0.2169    1.2340 H         1 <0>         0.0621
     44 H19        -2.3880   -4.8742   -0.4158 H         1 <0>         0.0630
     45 H20        -2.8264   -1.9431    2.6841 H         1 <0>         0.0618
     46 H21        -3.0456   -4.2806    1.8860 H         1 <0>         0.0618
@<TRIPOS>BOND
     1    1   16 2
     2    2   17 2
     3    3    9 1
     4    3   12 1
     5    3   13 1
     6    4   13 1
     7    4   15 1
     8    4   16 am
     9    5    8 1
    10    5   35 1
    11    5   36 1
    12    6   16 am
    13    6   17 am
    14    6   19 1
    15    7   25 3
    16    8    9 1
    17    8   10 1
    18    8   26 1
    19    9   27 1
    20    9   28 1
    21   10   11 1
    22   10   29 1
    23   10   30 1
    24   11   12 1
    25   11   31 1
    26   11   32 1
    27   12   33 1
    28   12   34 1
    29   13   14 2
    30   14   17 1
    31   14   37 1
    32   15   18 1
    33   15   38 1
    34   15   39 1
    35   18   20 ar
    36   18   21 ar
    37   19   40 1
    38   19   41 1
    39   19   42 1
    40   20   22 ar
    41   20   25 1
    42   21   23 ar
    43   21   43 1
    44   22   24 ar
    45   22   44 1
    46   23   24 ar
    47   23   45 1
    48   24   46 1
