@<TRIPOS>MOLECULE
DB06410
   74    76     0     0     0
SMALL
USER_CHARGES

@<TRIPOS>ATOM
      1 O1         -8.9441    0.1169   -1.0749 O.3       1 <0>        -0.3914
      2 O2         -5.2350    2.1655   -1.8822 O.3       1 <0>        -0.3871
      3 C1          0.2054   -1.4156    0.1295 C.3       1 <0>        -0.0222
      4 C2          1.5785   -0.8849    0.6086 C.3       1 <0>        -0.0291
      5 C3         -0.7060   -0.7715    1.2035 C.3       1 <0>        -0.0139
      6 C4          1.2937    0.5818    1.0062 C.3       1 <0>        -0.0486
      7 C5         -0.2238    0.6797    1.2496 C.3       1 <0>        -0.0457
      8 C6          0.0516   -2.9478    0.2139 C.3       1 <0>        -0.0465
      9 C7          2.7364   -1.0197   -0.3698 C.3       1 <0>        -0.0224
     10 C8         -2.1497   -1.1361    0.9866 C.2       1 <0>        -0.0659
     11 C9         -0.1149   -0.9392   -1.3107 C.3       1 <0>        -0.0587
     12 C10        -1.4161   -3.3825    0.0510 C.3       1 <0>        -0.0488
     13 C11        -2.3798   -2.6337    0.9859 C.3       1 <0>        -0.0312
     14 C12         2.9767   -2.4877   -0.7303 C.3       1 <0>        -0.0587
     15 C13         3.9920   -0.4207    0.2164 C.2       1 <0>        -0.0846
     16 C14        -3.1491   -0.2596    0.8165 C.2       1 <0>        -0.0620
     17 C15         4.6569    0.6063   -0.3349 C.2       1 <0>        -0.0846
     18 C16        -4.5217   -0.6543    0.6193 C.2       1 <0>        -0.0582
     19 C17         5.9077    1.2156    0.2600 C.3       1 <0>        -0.0234
     20 C18        -5.5232    0.2232    0.4488 C.2       1 <0>        -0.0399
     21 C19         7.1137    1.0974   -0.7150 C.3       1 <0>        -0.0407
     22 C20        -6.9416   -0.2262    0.2020 C.3       1 <0>        -0.0011
     23 C21         5.5966    2.6692    0.6352 C.3       1 <0>        -0.0587
     24 C22        -5.3205    1.6704    0.4466 C.2       1 <0>        -0.0229
     25 C23        -7.5666    0.4711   -1.0085 C.3       1 <0>         0.0619
     26 C24        -5.9775    2.4211   -0.6890 C.3       1 <0>         0.0822
     27 C25        -7.4351    1.9937   -0.8900 C.3       1 <0>         0.0037
     28 C26         7.4263   -0.3598   -1.0758 C.3       1 <0>        -0.0621
     29 C27         8.3800    1.7415   -0.1312 C.3       1 <0>        -0.0621
     30 C28        -4.6443    2.3092    1.4152 C.2       1 <0>        -0.0928
     31 H1          1.8452   -1.4178    1.5354 H         1 <0>         0.0312
     32 H2         -0.4459   -1.1993    2.1866 H         1 <0>         0.0351
     33 H3          1.5814    1.2914    0.2219 H         1 <0>         0.0268
     34 H4          1.8486    0.8505    1.9123 H         1 <0>         0.0268
     35 H5         -0.4465    1.1527    2.2118 H         1 <0>         0.0271
     36 H6         -0.6812    1.2943    0.4664 H         1 <0>         0.0271
     37 H7          0.4183   -3.3097    1.1830 H         1 <0>         0.0271
     38 H8          0.6187   -3.4733   -0.5547 H         1 <0>         0.0271
     39 H9          2.5078   -0.4842   -1.3000 H         1 <0>         0.0343
     40 H10         0.1002    0.1244   -1.4559 H         1 <0>         0.0235
     41 H11         0.4690   -1.4918   -2.0537 H         1 <0>         0.0235
     42 H12        -1.1685   -1.0829   -1.5699 H         1 <0>         0.0235
     43 H13        -1.4932   -4.4597    0.2427 H         1 <0>         0.0268
     44 H14        -1.7319   -3.2340   -0.9888 H         1 <0>         0.0268
     45 H15        -2.2102   -2.9916    2.0107 H         1 <0>         0.0310
     46 H16        -3.3839   -2.9650    0.7257 H         1 <0>         0.0310
     47 H17         2.9074   -3.1481    0.1404 H         1 <0>         0.0235
     48 H18         3.9813   -2.6213   -1.1515 H         1 <0>         0.0235
     49 H19         2.2922   -2.8271   -1.5106 H         1 <0>         0.0235
     50 H20         4.3623   -0.8584    1.1408 H         1 <0>         0.0572
     51 H21        -2.8708    0.7832    0.7737 H         1 <0>         0.0617
     52 H22         4.2884    1.0454   -1.2594 H         1 <0>         0.0572
     53 H23        -4.7978   -1.6998    0.6024 H         1 <0>         0.0620
     54 H24         6.1621    0.6846    1.1877 H         1 <0>         0.0343
     55 H25         6.8725    1.6258   -1.6473 H         1 <0>         0.0301
     56 H26        -7.0046   -1.3125    0.0577 H         1 <0>         0.0338
     57 H27        -7.5437   -0.0200    1.0976 H         1 <0>         0.0338
     58 H28         6.3999    3.1052    1.2374 H         1 <0>         0.0235
     59 H29         4.6805    2.7348    1.2340 H         1 <0>         0.0235
     60 H30         5.4606    3.2927   -0.2556 H         1 <0>         0.0235
     61 H31        -7.0860    0.1185   -1.9291 H         1 <0>         0.0597
     62 H32        -5.9528    3.5042   -0.5212 H         1 <0>         0.0644
     63 H33        -8.0538    2.3527   -0.0571 H         1 <0>         0.0318
     64 H34        -7.8420    2.4549   -1.7985 H         1 <0>         0.0318
     65 H35         8.3014   -0.4193   -1.7323 H         1 <0>         0.0233
     66 H36         7.6367   -0.9525   -0.1791 H         1 <0>         0.0233
     67 H37         6.5939   -0.8301   -1.6084 H         1 <0>         0.0233
     68 H38         8.6264    1.3152    0.8470 H         1 <0>         0.0233
     69 H39         9.2379    1.5838   -0.7942 H         1 <0>         0.0233
     70 H40         8.2624    2.8233   -0.0169 H         1 <0>         0.0233
     71 H41        -4.5267    3.3883    1.3891 H         1 <0>         0.0538
     72 H42        -4.2316    1.8028    2.2816 H         1 <0>         0.0538
     73 H43        -9.3254    0.5686   -1.8472 H         1 <0>         0.2098
     74 H44        -4.3252    2.4773   -1.7369 H         1 <0>         0.2102
@<TRIPOS>BOND
     1    1   25 1
     2    1   73 1
     3    2   26 1
     4    2   74 1
     5    3    4 1
     6    3    5 1
     7    3    8 1
     8    3   11 1
     9    4    6 1
    10    4    9 1
    11    4   31 1
    12    5    7 1
    13    5   10 1
    14    5   32 1
    15    6    7 1
    16    6   33 1
    17    6   34 1
    18    7   35 1
    19    7   36 1
    20    8   12 1
    21    8   37 1
    22    8   38 1
    23    9   14 1
    24    9   15 1
    25    9   39 1
    26   10   13 1
    27   10   16 2
    28   11   40 1
    29   11   41 1
    30   11   42 1
    31   12   13 1
    32   12   43 1
    33   12   44 1
    34   13   45 1
    35   13   46 1
    36   14   47 1
    37   14   48 1
    38   14   49 1
    39   15   17 2
    40   15   50 1
    41   16   18 1
    42   16   51 1
    43   17   19 1
    44   17   52 1
    45   18   20 2
    46   18   53 1
    47   19   21 1
    48   19   23 1
    49   19   54 1
    50   20   22 1
    51   20   24 1
    52   21   28 1
    53   21   29 1
    54   21   55 1
    55   22   25 1
    56   22   56 1
    57   22   57 1
    58   23   58 1
    59   23   59 1
    60   23   60 1
    61   24   26 1
    62   24   30 2
    63   25   27 1
    64   25   61 1
    65   26   27 1
    66   26   62 1
    67   27   63 1
    68   27   64 1
    69   28   65 1
    70   28   66 1
    71   28   67 1
    72   29   68 1
    73   29   69 1
    74   29   70 1
    75   30   71 1
    76   30   72 1
