@<TRIPOS>MOLECULE
DB06249
   63    67     0     0     0
SMALL
USER_CHARGES

@<TRIPOS>ATOM
      1 S1         -5.4117    1.7111   -0.9772 S.3       1 <0>        -0.0843
      2 O1          1.4234   -2.2924   -0.2547 O.3       1 <0>        -0.4907
      3 O2         -3.5761   -0.6864    1.4209 O.3       1 <0>        -0.4543
      4 O3         -9.5820   -1.3762   -1.1614 O.3       1 <0>        -0.5067
      5 O4          0.5003    4.2521    0.3931 O.3       1 <0>        -0.4951
      6 N1          4.7920   -0.8059   -0.4267 N.3       1 <0>        -0.2991
      7 C1          5.8091   -0.7843   -1.4872 C.3       1 <0>        -0.0010
      8 C2          5.3472   -1.3242    0.8316 C.3       1 <0>        -0.0010
      9 C3          7.0036    0.0839   -1.0887 C.3       1 <0>        -0.0402
     10 C4          6.5266   -0.4738    1.3058 C.3       1 <0>        -0.0402
     11 C5          7.6063   -0.3757    0.2339 C.3       1 <0>        -0.0507
     12 C6          3.6366   -1.6009   -0.8419 C.3       1 <0>         0.0331
     13 C7          2.5292   -1.5214    0.1968 C.3       1 <0>         0.1022
     14 C8          0.1804   -1.8927    0.1618 C.ar      1 <0>         0.1208
     15 C9         -4.4514   -0.0421    0.5864 C.2       1 <0>         0.1508
     16 C10        -5.7401   -0.5408    0.2501 C.ar      1 <0>         0.0323
     17 C11        -4.1376    1.1498    0.0062 C.2       1 <0>         0.0627
     18 C12        -0.9251   -2.1270   -0.6481 C.ar      1 <0>        -0.0165
     19 C13         0.0373   -1.2577    1.3903 C.ar      1 <0>        -0.0165
     20 C14        -6.3923    0.3385   -0.6198 C.ar      1 <0>         0.0270
     21 C15        -2.3417   -1.0828    1.0073 C.ar      1 <0>         0.1287
     22 C16        -2.1904   -1.7206   -0.2240 C.ar      1 <0>        -0.0159
     23 C17        -1.2279   -0.8514    1.8144 C.ar      1 <0>        -0.0159
     24 C18        -2.9393    1.9515    0.1059 C.ar      1 <0>        -0.0075
     25 C19        -6.4177   -1.7212    0.6407 C.ar      1 <0>        -0.0465
     26 C20        -7.6881    0.0705   -1.1030 C.ar      1 <0>        -0.0057
     27 C21        -7.7031   -1.9897    0.1631 C.ar      1 <0>        -0.0194
     28 C22        -8.3295   -1.1019   -0.6998 C.ar      1 <0>         0.1180
     29 C23        -1.8934    1.7522   -0.7927 C.ar      1 <0>        -0.0500
     30 C24        -2.8333    2.9213    1.1010 C.ar      1 <0>        -0.0500
     31 C25        -0.7366    2.5258   -0.6962 C.ar      1 <0>        -0.0194
     32 C26        -1.6766    3.6950    1.1974 C.ar      1 <0>        -0.0194
     33 C27        -0.6283    3.4972    0.2989 C.ar      1 <0>         0.1201
     34 C28         1.5331    3.9973   -0.5578 C.3       1 <0>         0.0788
     35 H1          5.3786   -0.3692   -2.4066 H         1 <0>         0.0427
     36 H2          6.1541   -1.8007   -1.7184 H         1 <0>         0.0427
     37 H3          5.6643   -2.3695    0.7216 H         1 <0>         0.0427
     38 H4          4.6225   -1.2813    1.6487 H         1 <0>         0.0427
     39 H5          7.7663    0.0475   -1.8748 H         1 <0>         0.0278
     40 H6          6.6843    1.1302   -1.0009 H         1 <0>         0.0278
     41 H7          6.9523   -0.9060    2.2187 H         1 <0>         0.0278
     42 H8          6.1747    0.5336    1.5627 H         1 <0>         0.0278
     43 H9          8.3906    0.3198    0.5522 H         1 <0>         0.0266
     44 H10         8.0790   -1.3563    0.0997 H         1 <0>         0.0266
     45 H11         3.2400   -1.2237   -1.7937 H         1 <0>         0.0460
     46 H12         3.9065   -2.6502   -1.0216 H         1 <0>         0.0460
     47 H13         2.8272   -1.9532    1.1554 H         1 <0>         0.0709
     48 H14         2.2604   -0.4649    0.3314 H         1 <0>         0.0709
     49 H15        -0.8118   -2.6250   -1.6066 H         1 <0>         0.0655
     50 H16         0.8726   -1.0825    2.0611 H         1 <0>         0.0655
     51 H17        -3.0448   -1.9223   -0.8641 H         1 <0>         0.0655
     52 H18        -1.3410   -0.3590    2.7764 H         1 <0>         0.0655
     53 H19        -5.9403   -2.4275    1.3155 H         1 <0>         0.0626
     54 H20        -8.1818    0.7634   -1.7794 H         1 <0>         0.0665
     55 H21        -8.2011   -2.9033    0.4778 H         1 <0>         0.0654
     56 H22        -1.9648    1.0075   -1.5816 H         1 <0>         0.0625
     57 H23        -3.6406    3.0869    1.8104 H         1 <0>         0.0625
     58 H24         0.0381    2.3206   -1.4270 H         1 <0>         0.0654
     59 H25        -1.5977    4.4498    1.9751 H         1 <0>         0.0654
     60 H26        -9.8784   -2.2234   -0.7867 H         1 <0>         0.2921
     61 H27         1.9312    2.9818   -0.4571 H         1 <0>         0.0660
     62 H28         1.2021    4.2139   -1.5792 H         1 <0>         0.0660
     63 H29         2.3547    4.6860   -0.3352 H         1 <0>         0.0660
@<TRIPOS>BOND
     1    1   17 1
     2    1   20 1
     3    2   13 1
     4    2   14 1
     5    3   15 1
     6    3   21 1
     7    4   28 1
     8    4   60 1
     9    5   33 1
    10    5   34 1
    11    6    7 1
    12    6    8 1
    13    6   12 1
    14    7    9 1
    15    7   35 1
    16    7   36 1
    17    8   10 1
    18    8   37 1
    19    8   38 1
    20    9   11 1
    21    9   39 1
    22    9   40 1
    23   10   11 1
    24   10   41 1
    25   10   42 1
    26   11   43 1
    27   11   44 1
    28   12   13 1
    29   12   45 1
    30   12   46 1
    31   13   47 1
    32   13   48 1
    33   14   18 ar
    34   14   19 ar
    35   15   16 1
    36   15   17 2
    37   16   20 ar
    38   16   25 ar
    39   17   24 1
    40   18   22 ar
    41   18   49 1
    42   19   23 ar
    43   19   50 1
    44   20   26 ar
    45   21   22 ar
    46   21   23 ar
    47   22   51 1
    48   23   52 1
    49   24   29 ar
    50   24   30 ar
    51   25   27 ar
    52   25   53 1
    53   26   28 ar
    54   26   54 1
    55   27   28 ar
    56   27   55 1
    57   29   31 ar
    58   29   56 1
    59   30   32 ar
    60   30   57 1
    61   31   33 ar
    62   31   58 1
    63   32   33 ar
    64   32   59 1
    65   34   61 1
    66   34   62 1
    67   34   63 1
