@<TRIPOS>MOLECULE
DB06766
   44    47     0     0     0
SMALL
USER_CHARGES

@<TRIPOS>ATOM
      1 O1         -3.7593    4.6764    0.0559 O.2       1 <0>        -0.2941
      2 N1          3.7198    0.2749   -0.1183 N.3       1 <0>        -0.3047
      3 N2         -1.8554    1.5640   -0.0290 N.pl3     1 <0>        -0.3213
      4 N3         -0.9299    1.9811    1.9371 N.2       1 <0>        -0.2351
      5 C1          1.0074   -0.0736    0.8061 C.2       1 <0>        -0.0559
      6 C2          1.7600    1.1959    1.0976 C.3       1 <0>        -0.0179
      7 C3          1.8895   -1.2650    0.5499 C.3       1 <0>        -0.0179
      8 C4         -0.3301   -0.1313    0.7476 C.2       1 <0>         0.0242
      9 C5          2.8319    1.4405    0.0294 C.3       1 <0>         0.0023
     10 C6          2.9563   -0.9261   -0.4976 C.3       1 <0>         0.0023
     11 C7         -1.0061   -1.4300    0.4526 C.ar      1 <0>        -0.0112
     12 C8         -1.0038    1.1080    0.9482 C.cat     1 <0>         0.1418
     13 C9         -2.1311    0.8924   -1.2810 C.3       1 <0>         0.0293
     14 C10        -2.8792   -0.4160   -1.0661 C.3       1 <0>        -0.0090
     15 C11        -2.1498   -1.5519   -0.3713 C.ar      1 <0>        -0.0379
     16 C12         4.7637    0.5497   -1.1055 C.3       1 <0>        -0.0127
     17 C13        -2.3685    2.7629    0.3730 C.2       1 <0>         0.1014
     18 C14        -0.5103   -2.5962    1.0811 C.ar      1 <0>        -0.0537
     19 C15        -2.7311   -2.8291   -0.5460 C.ar      1 <0>        -0.0579
     20 C16        -1.7811    3.0005    1.5921 C.2       1 <0>         0.0566
     21 C17        -1.0964   -3.8471    0.8847 C.ar      1 <0>        -0.0612
     22 C18        -2.2074   -3.9646    0.0663 C.ar      1 <0>        -0.0615
     23 C19        -3.3019    3.5850   -0.3246 C.2       1 <0>         0.1680
     24 H1          1.1828    2.1181    1.1376 H         1 <0>         0.0323
     25 H2          2.2415    1.0930    2.0793 H         1 <0>         0.0323
     26 H3          2.3750   -1.5703    1.4853 H         1 <0>         0.0323
     27 H4          1.4277   -2.1390    0.0983 H         1 <0>         0.0323
     28 H5          2.3525    1.6887   -0.9276 H         1 <0>         0.0429
     29 H6          3.4226    2.3137    0.3332 H         1 <0>         0.0429
     30 H7          3.6383   -1.7818   -0.5814 H         1 <0>         0.0429
     31 H8          2.4840   -0.7893   -1.4805 H         1 <0>         0.0429
     32 H9         -1.1697    0.7260   -1.7829 H         1 <0>         0.0495
     33 H10        -2.7109    1.5448   -1.9357 H         1 <0>         0.0495
     34 H11        -3.1827   -0.7710   -2.0604 H         1 <0>         0.0331
     35 H12        -3.8000   -0.2189   -0.5008 H         1 <0>         0.0331
     36 H13         5.4533   -0.2981   -1.1822 H         1 <0>         0.0391
     37 H14         5.3633    1.4145   -0.8005 H         1 <0>         0.0391
     38 H15         4.3506    0.7498   -2.1008 H         1 <0>         0.0391
     39 H16         0.2686   -2.5541    1.8405 H         1 <0>         0.0624
     40 H17        -3.6180   -2.9411   -1.1675 H         1 <0>         0.0620
     41 H18        -1.9199    3.8530    2.2416 H         1 <0>         0.0852
     42 H19        -0.7029   -4.7188    1.3991 H         1 <0>         0.0618
     43 H20        -2.6784   -4.9313   -0.0829 H         1 <0>         0.0618
     44 H21        -3.6647    3.2117   -1.2939 H         1 <0>         0.1097
@<TRIPOS>BOND
     1    1   23 2
     2    2    9 1
     3    2   10 1
     4    2   16 1
     5    3   12 1
     6    3   13 1
     7    3   17 2
     8    4   12 1
     9    4   20 2
    10    5    6 1
    11    5    7 1
    12    5    8 2
    13    6    9 1
    14    6   24 1
    15    6   25 1
    16    7   10 1
    17    7   26 1
    18    7   27 1
    19    8   11 1
    20    8   12 1
    21    9   28 1
    22    9   29 1
    23   10   30 1
    24   10   31 1
    25   11   15 ar
    26   11   18 ar
    27   13   14 1
    28   13   32 1
    29   13   33 1
    30   14   15 1
    31   14   34 1
    32   14   35 1
    33   15   19 ar
    34   16   36 1
    35   16   37 1
    36   16   38 1
    37   17   20 1
    38   17   23 1
    39   18   21 ar
    40   18   39 1
    41   19   22 ar
    42   19   40 1
    43   20   41 1
    44   21   22 ar
    45   21   42 1
    46   22   43 1
    47   23   44 1
