@<TRIPOS>MOLECULE
DB06712
   47    48     0     0     0
SMALL
USER_CHARGES

@<TRIPOS>ATOM
      1 O1         -2.1725   -0.8380   -0.1467 O.3       1 <0>        -0.4586
      2 O2          3.2358    0.8951   -1.2140 O.3       1 <0>        -0.4646
      3 O3         -1.5588   -1.3998   -2.3070 O.2       1 <0>        -0.2452
      4 O4          4.4930    0.0297    0.5266 O.2       1 <0>        -0.2452
      5 O5         -0.7901    5.1617    0.9443 O.3       1 <0>        -0.5760
      6 O6         -0.2260    4.4418   -1.0560 O.2       1 <0>         0.0414
      7 N1          1.5460   -3.0621    0.4521 N.pl3     1 <0>        -0.3088
      8 N2         -0.3998    4.2540    0.1719 N.pl3     1 <0>         0.0796
      9 N3          4.8492   -3.1067    1.1760 N.1       1 <0>        -0.1895
     10 C1          1.0039   -0.4333   -0.4929 C.3       1 <0>         0.0518
     11 C2         -0.0287   -1.5711   -0.5050 C.2       1 <0>         0.0652
     12 C3          2.3958   -0.9033   -0.0640 C.2       1 <0>         0.0800
     13 C4          0.5360    0.6747    0.4053 C.ar      1 <0>        -0.0286
     14 C5          0.2678   -2.8006   -0.0206 C.2       1 <0>         0.0164
     15 C6          2.5816   -2.1568    0.3911 C.2       1 <0>         0.1203
     16 C7         -1.3320   -1.2674   -1.1187 C.2       1 <0>         0.3378
     17 C8          0.2895    1.9349   -0.1273 C.ar      1 <0>         0.0197
     18 C9          0.3551    0.4299    1.7616 C.ar      1 <0>        -0.0572
     19 C10        -0.6862   -3.9619    0.0536 C.3       1 <0>        -0.0260
     20 C11         3.5112    0.0482   -0.1927 C.2       1 <0>         0.3383
     21 C12        -0.1443    2.9643    0.7080 C.ar      1 <0>         0.2734
     22 C13        -3.4911   -0.5011   -0.5902 C.3       1 <0>         0.0978
     23 C14        -0.0785    1.4593    2.5970 C.ar      1 <0>        -0.0551
     24 C15        -0.3283    2.7265    2.0701 C.ar      1 <0>         0.0156
     25 C16         3.8298   -2.6799    0.8232 C.1       1 <0>         0.1152
     26 C17        -4.3266   -0.0702    0.6056 C.3       1 <0>        -0.0280
     27 C18        -3.4012    0.5934   -1.6427 C.3       1 <0>        -0.0280
     28 C19         4.2358    1.8876   -1.4661 C.3       1 <0>         0.0820
     29 H1          1.0672   -0.0876   -1.5345 H         1 <0>         0.0452
     30 H2          1.7359   -3.9946    0.8019 H         1 <0>         0.1525
     31 H3          0.4373    2.0975   -1.1921 H         1 <0>         0.0688
     32 H4          0.5418   -0.5477    2.1968 H         1 <0>         0.0621
     33 H5         -0.3068   -4.8009   -0.5394 H         1 <0>         0.0290
     34 H6         -1.6849   -3.7189   -0.3200 H         1 <0>         0.0290
     35 H7         -0.7958   -4.2943    1.0915 H         1 <0>         0.0290
     36 H8         -3.9575   -1.3957   -1.0218 H         1 <0>         0.0728
     37 H9         -0.2221    1.2738    3.6575 H         1 <0>         0.0620
     38 H10        -0.6654    3.5038    2.7511 H         1 <0>         0.0685
     39 H11        -5.3533    0.1684    0.3126 H         1 <0>         0.0265
     40 H12        -4.3532   -0.8657    1.3580 H         1 <0>         0.0265
     41 H13        -3.8858    0.8072    1.0921 H         1 <0>         0.0265
     42 H14        -4.3760    1.0745   -1.7812 H         1 <0>         0.0265
     43 H15        -3.1130    0.2225   -2.6290 H         1 <0>         0.0265
     44 H16        -2.6789    1.3653   -1.3558 H         1 <0>         0.0265
     45 H17         4.3604    2.5302   -0.5893 H         1 <0>         0.0661
     46 H18         3.9002    2.5017   -2.3060 H         1 <0>         0.0661
     47 H19         5.1835    1.4113   -1.7350 H         1 <0>         0.0661
@<TRIPOS>BOND
     1    1   16 1
     2    1   22 1
     3    2   20 1
     4    2   28 1
     5    3   16 2
     6    4   20 2
     7    5    8 1
     8    6    8 2
     9    7   14 1
    10    7   15 1
    11    7   30 1
    12    8   21 1
    13    9   25 3
    14   10   11 1
    15   10   12 1
    16   10   13 1
    17   10   29 1
    18   11   14 2
    19   11   16 1
    20   12   15 2
    21   12   20 1
    22   13   17 ar
    23   13   18 ar
    24   14   19 1
    25   15   25 1
    26   17   21 ar
    27   17   31 1
    28   18   23 ar
    29   18   32 1
    30   19   33 1
    31   19   34 1
    32   19   35 1
    33   21   24 ar
    34   22   26 1
    35   22   27 1
    36   22   36 1
    37   23   24 ar
    38   23   37 1
    39   24   38 1
    40   26   39 1
    41   26   40 1
    42   26   41 1
    43   27   42 1
    44   27   43 1
    45   27   44 1
    46   28   45 1
    47   28   46 1
    48   28   47 1
