@<TRIPOS>MOLECULE
DB06764
   31    33     0     0     0
SMALL
USER_CHARGES

@<TRIPOS>ATOM
      1 N1         -2.7129    0.1952   -0.7774 N.pl3     1 <0>        -0.2332
      2 N2         -1.3700    0.5395    1.0275 N.2       1 <0>        -0.0834
      3 C1         -0.2834   -0.3288   -1.0011 C.3       1 <0>         0.0869
      4 C2         -0.1996   -1.8577   -0.9138 C.3       1 <0>        -0.0349
      5 C3          0.4674   -2.3147    0.3797 C.3       1 <0>        -0.0480
      6 C4          0.9755    0.3761   -0.5473 C.ar      1 <0>        -0.0296
      7 C5          1.8888   -1.7697    0.4729 C.3       1 <0>        -0.0274
      8 C6          1.9802   -0.2949    0.1750 C.ar      1 <0>        -0.0434
      9 C7         -1.4707    0.1570   -0.2202 C.2       1 <0>         0.2885
     10 C8          1.1378    1.7421   -0.8367 C.ar      1 <0>        -0.0575
     11 C9         -3.6685    0.6557    0.1839 C.3       1 <0>         0.1194
     12 C10        -2.7658    0.9305    1.3961 C.3       1 <0>         0.1671
     13 C11         3.1286    0.4063    0.5754 C.ar      1 <0>        -0.0583
     14 C12         2.2786    2.4295   -0.4236 C.ar      1 <0>        -0.0615
     15 C13         3.2741    1.7615    0.2820 C.ar      1 <0>        -0.0615
     16 H1         -0.4579   -0.0732   -2.0556 H         1 <0>         0.0472
     17 H2          0.3860   -2.2351   -1.7626 H         1 <0>         0.0277
     18 H3         -1.1954   -2.3100   -0.9936 H         1 <0>         0.0277
     19 H4          0.4929   -3.4097    0.4199 H         1 <0>         0.0269
     20 H5         -0.1201   -1.9813    1.2436 H         1 <0>         0.0269
     21 H6          2.5298   -2.3012   -0.2417 H         1 <0>         0.0313
     22 H7          2.2766   -1.9728    1.4785 H         1 <0>         0.0313
     23 H8         -2.9540   -0.0873   -1.7193 H         1 <0>         0.2912
     24 H9         -4.4120   -0.1154    0.4062 H         1 <0>         0.0765
     25 H10        -4.1766    1.5635   -0.1539 H         1 <0>         0.0765
     26 H11         0.3702    2.2791   -1.3893 H         1 <0>         0.0621
     27 H12        -2.7845    1.9920    1.6653 H         1 <0>         0.0829
     28 H13        -3.0907    0.3503    2.2662 H         1 <0>         0.0829
     29 H14         3.9199   -0.1048    1.1185 H         1 <0>         0.0620
     30 H15         2.3901    3.4847   -0.6547 H         1 <0>         0.0618
     31 H16         4.1657    2.2934    0.6004 H         1 <0>         0.0618
@<TRIPOS>BOND
     1    1    9 1
     2    1   11 1
     3    1   23 1
     4    2    9 2
     5    2   12 1
     6    3    4 1
     7    3    6 1
     8    3    9 1
     9    3   16 1
    10    4    5 1
    11    4   17 1
    12    4   18 1
    13    5    7 1
    14    5   19 1
    15    5   20 1
    16    6    8 ar
    17    6   10 ar
    18    7    8 1
    19    7   21 1
    20    7   22 1
    21    8   13 ar
    22   10   14 ar
    23   10   26 1
    24   11   12 1
    25   11   24 1
    26   11   25 1
    27   12   27 1
    28   12   28 1
    29   13   15 ar
    30   13   29 1
    31   14   15 ar
    32   14   30 1
    33   15   31 1
