@<TRIPOS>MOLECULE
DB06654
   41    42     0     0     0
SMALL
USER_CHARGES

@<TRIPOS>ATOM
      1 F1          7.6519   -1.9568    0.6955 F         1 <0>        -0.2055
      2 O1          2.5956    0.0720    0.5840 O.3       1 <0>        -0.4874
      3 O2         -5.1991   -0.5255   -2.1268 O.2       1 <0>        -0.2743
      4 N1         -3.6859    0.7027    0.0906 N.3       1 <0>        -0.3019
      5 N2         -6.0670   -1.6745   -0.3386 N.am      1 <0>        -0.3280
      6 C1         -3.0135   -0.5273    0.4817 C.3       1 <0>         0.0219
      7 C2         -5.1345    0.5175    0.0686 C.3       1 <0>         0.0819
      8 C3         -1.5209   -0.3675    0.5083 C.ar      1 <0>        -0.0333
      9 C4         -5.8264    1.8137   -0.3342 C.3       1 <0>        -0.0412
     10 C5         -0.8949    0.0429    1.6793 C.ar      1 <0>        -0.0539
     11 C6         -0.7804   -0.6325   -0.6374 C.ar      1 <0>        -0.0539
     12 C7          1.2426   -0.0730    0.5591 C.ar      1 <0>         0.1210
     13 C8          0.4920    0.1906    1.7048 C.ar      1 <0>        -0.0196
     14 C9          0.6064   -0.4847   -0.6121 C.ar      1 <0>        -0.0196
     15 C10        -5.4590   -0.5852   -0.9272 C.2       1 <0>         0.2273
     16 C11         3.3018   -0.2143   -0.6222 C.3       1 <0>         0.1147
     17 C12         4.7717   -0.0280   -0.3854 C.ar      1 <0>        -0.0077
     18 C13         5.5395   -1.1010    0.0528 C.ar      1 <0>        -0.0201
     19 C14         5.3519    1.2158   -0.6064 C.ar      1 <0>        -0.0552
     20 C15         6.9059   -0.9277    0.2730 C.ar      1 <0>         0.1238
     21 C16         6.7184    1.3890   -0.3862 C.ar      1 <0>        -0.0587
     22 C17         7.4953    0.3172    0.0536 C.ar      1 <0>        -0.0264
     23 H1         -3.2337   -1.3574   -0.2000 H         1 <0>         0.0474
     24 H2         -3.3551   -0.8525    1.4737 H         1 <0>         0.0474
     25 H3         -5.4867    0.2464    1.0716 H         1 <0>         0.0553
     26 H4         -3.4517    1.4476    0.7469 H         1 <0>         0.1229
     27 H5         -6.9120    1.6725   -0.3789 H         1 <0>         0.0249
     28 H6         -5.6189    2.6124    0.3861 H         1 <0>         0.0249
     29 H7         -5.5018    2.1557   -1.3238 H         1 <0>         0.0249
     30 H8         -1.4696    0.2527    2.5772 H         1 <0>         0.0622
     31 H9         -1.2664   -0.9511   -1.5557 H         1 <0>         0.0622
     32 H10         0.9821    0.5121    2.6198 H         1 <0>         0.0654
     33 H11         1.1236   -0.7041   -1.5396 H         1 <0>         0.0654
     34 H12         2.9868    0.4628   -1.4276 H         1 <0>         0.0748
     35 H13         3.1328   -1.2525   -0.9381 H         1 <0>         0.0748
     36 H14         5.0910   -2.0746    0.2296 H         1 <0>         0.0650
     37 H15         4.7561    2.0584   -0.9465 H         1 <0>         0.0621
     38 H16        -6.2725   -1.7198    0.6542 H         1 <0>         0.1450
     39 H17        -6.3321   -2.4822   -0.8923 H         1 <0>         0.1450
     40 H18         7.1774    2.3584   -0.5564 H         1 <0>         0.0619
     41 H19         8.5592    0.4519    0.2254 H         1 <0>         0.0646
@<TRIPOS>BOND
     1    1   20 1
     2    2   12 1
     3    2   16 1
     4    3   15 2
     5    4    6 1
     6    4    7 1
     7    4   26 1
     8    5   15 am
     9    5   38 1
    10    5   39 1
    11    6    8 1
    12    6   23 1
    13    6   24 1
    14    7    9 1
    15    7   15 1
    16    7   25 1
    17    8   10 ar
    18    8   11 ar
    19    9   27 1
    20    9   28 1
    21    9   29 1
    22   10   13 ar
    23   10   30 1
    24   11   14 ar
    25   11   31 1
    26   12   13 ar
    27   12   14 ar
    28   13   32 1
    29   14   33 1
    30   16   17 1
    31   16   34 1
    32   16   35 1
    33   17   18 ar
    34   17   19 ar
    35   18   20 ar
    36   18   36 1
    37   19   21 ar
    38   19   37 1
    39   20   22 ar
    40   21   22 ar
    41   21   40 1
    42   22   41 1
