@<TRIPOS>MOLECULE
DB06697
   47    50     0     0     0
SMALL
USER_CHARGES

@<TRIPOS>ATOM
      1 O1         -0.6852    0.7381    1.8011 O.3       1 <0>        -0.2196
      2 O2         -1.1815    1.7519   -0.8760 O.3       1 <0>        -0.3144
      3 O3          1.0639    1.9050   -0.2798 O.3       1 <0>        -0.3194
      4 O4         -1.0640    2.1056    1.4560 O.3       1 <0>        -0.1989
      5 O5          2.8801    0.6546   -1.1273 O.3       1 <0>        -0.3541
      6 C1         -0.2643    0.0204    0.6103 C.3       1 <0>         0.1612
      7 C2         -1.4222   -0.9967    0.3503 C.3       1 <0>        -0.0010
      8 C3          1.0506   -0.7062    1.0082 C.3       1 <0>         0.0034
      9 C4         -1.0122   -2.1400   -0.6152 C.3       1 <0>        -0.0381
     10 C5         -0.0038    0.9932   -0.5680 C.3       1 <0>         0.1976
     11 C6          1.4085   -1.8385    0.0330 C.3       1 <0>        -0.0467
     12 C7          2.1887    0.3327    1.2050 C.3       1 <0>         0.0131
     13 C8         -2.7416   -0.3362   -0.1131 C.3       1 <0>        -0.0421
     14 C9          0.2639   -2.8281   -0.1230 C.3       1 <0>        -0.0498
     15 C10        -1.9206    2.0540    0.3113 C.3       1 <0>         0.2027
     16 C11        -3.0582    1.0334    0.4952 C.3       1 <0>         0.0043
     17 C12         2.3162    1.2928    0.0114 C.3       1 <0>         0.1647
     18 C13        -2.1110   -3.1963   -0.7856 C.3       1 <0>        -0.0621
     19 C14         3.5319   -0.3047    1.5662 C.3       1 <0>        -0.0575
     20 C15        -2.4926    3.4597    0.1439 C.3       1 <0>        -0.0077
     21 C16         2.9933    1.5508   -2.2241 C.3       1 <0>         0.0394
     22 H1         -1.6536   -1.4584    1.3232 H         1 <0>         0.0334
     23 H2          0.8905   -1.1736    1.9920 H         1 <0>         0.0335
     24 H3         -0.8117   -1.7128   -1.6065 H         1 <0>         0.0302
     25 H4          0.2527    0.4464   -1.4809 H         1 <0>         0.0943
     26 H5          2.2834   -2.3892    0.3954 H         1 <0>         0.0269
     27 H6          1.6672   -1.4481   -0.9555 H         1 <0>         0.0269
     28 H7          1.8902    0.9467    2.0673 H         1 <0>         0.0351
     29 H8         -3.5801   -1.0061    0.1162 H         1 <0>         0.0271
     30 H9         -2.7341   -0.2339   -1.2066 H         1 <0>         0.0271
     31 H10         0.5651   -3.6092   -0.8319 H         1 <0>         0.0268
     32 H11         0.0777   -3.3276    0.8365 H         1 <0>         0.0268
     33 H12        -3.9653    1.3919   -0.0085 H         1 <0>         0.0318
     34 H13        -3.3123    0.9257    1.5567 H         1 <0>         0.0318
     35 H14         2.9969    2.1013    0.3067 H         1 <0>         0.0913
     36 H15        -2.4209   -3.6059    0.1818 H         1 <0>         0.0233
     37 H16        -2.9937   -2.7806   -1.2808 H         1 <0>         0.0233
     38 H17        -1.7584   -4.0271   -1.4065 H         1 <0>         0.0233
     39 H18         3.9621   -0.8702    0.7342 H         1 <0>         0.0234
     40 H19         4.2562    0.4683    1.8455 H         1 <0>         0.0234
     41 H20         3.4228   -0.9810    2.4204 H         1 <0>         0.0234
     42 H21        -1.6829    4.1898    0.0259 H         1 <0>         0.0282
     43 H22        -3.1232    3.5333   -0.7486 H         1 <0>         0.0282
     44 H23        -3.0737    3.7602    1.0223 H         1 <0>         0.0282
     45 H24         3.5249    1.0347   -3.0286 H         1 <0>         0.0525
     46 H25         3.5707    2.4379   -1.9455 H         1 <0>         0.0525
     47 H26         2.0099    1.8422   -2.6039 H         1 <0>         0.0525
@<TRIPOS>BOND
     1    1    4 1
     2    1    6 1
     3    2   10 1
     4    2   15 1
     5    3   10 1
     6    3   17 1
     7    4   15 1
     8    5   17 1
     9    5   21 1
    10    6    7 1
    11    6    8 1
    12    6   10 1
    13    7    9 1
    14    7   13 1
    15    7   22 1
    16    8   11 1
    17    8   12 1
    18    8   23 1
    19    9   14 1
    20    9   18 1
    21    9   24 1
    22   10   25 1
    23   11   14 1
    24   11   26 1
    25   11   27 1
    26   12   17 1
    27   12   19 1
    28   12   28 1
    29   13   16 1
    30   13   29 1
    31   13   30 1
    32   14   31 1
    33   14   32 1
    34   15   16 1
    35   15   20 1
    36   16   33 1
    37   16   34 1
    38   17   35 1
    39   18   36 1
    40   18   37 1
    41   18   38 1
    42   19   39 1
    43   19   40 1
    44   19   41 1
    45   20   42 1
    46   20   43 1
    47   20   44 1
    48   21   45 1
    49   21   46 1
    50   21   47 1
