@<TRIPOS>MOLECULE
DB06217
   56    58     0     0     0
SMALL
USER_CHARGES

@<TRIPOS>ATOM
      1 O1          0.1692    1.1901    0.6624 O.3       1 <0>        -0.3747
      2 O2          6.2055   -1.6054    1.4322 O.3       1 <0>        -0.3905
      3 O3         -3.7973   -1.8565    1.3630 O.3       1 <0>        -0.4914
      4 O4         -5.5651   -1.0730   -0.6338 O.3       1 <0>        -0.4915
      5 N1          3.4533   -0.2535   -0.1471 N.3       1 <0>        -0.2944
      6 C1          2.0456   -0.2815    0.2193 C.3       1 <0>         0.0367
      7 C2          1.4053    1.0918   -0.0483 C.3       1 <0>         0.0742
      8 C3          1.3102   -1.4071   -0.5278 C.3       1 <0>        -0.0349
      9 C4          1.1655    1.3726   -1.5358 C.3       1 <0>        -0.0251
     10 C5          4.1466   -1.4989    0.1901 C.3       1 <0>         0.0253
     11 C6          4.1914    0.8038    0.5416 C.3       1 <0>         0.0017
     12 C7          1.1149   -1.1135   -2.0149 C.3       1 <0>        -0.0515
     13 C8          0.4313    0.2316   -2.2400 C.3       1 <0>        -0.0506
     14 C9          5.6213   -1.1033    0.2385 C.3       1 <0>         0.0691
     15 C10         5.6331    0.4234    0.2440 C.3       1 <0>        -0.0128
     16 C11        -0.3983    2.4847    0.5346 C.3       1 <0>         0.0521
     17 C12        -1.7059    2.5537    1.3157 C.3       1 <0>        -0.0040
     18 C13        -2.7366    1.5810    0.7964 C.ar      1 <0>        -0.0415
     19 C14        -2.7899    0.3009    1.3248 C.ar      1 <0>        -0.0131
     20 C15        -3.6115    1.9859   -0.1994 C.ar      1 <0>        -0.0548
     21 C16        -3.7428   -0.5977    0.8450 C.ar      1 <0>         0.1617
     22 C17        -4.5642    1.0871   -0.6794 C.ar      1 <0>        -0.0160
     23 C18        -4.6300   -0.2048   -0.1570 C.ar      1 <0>         0.1615
     24 C19        -3.0019   -2.8544    0.7259 C.3       1 <0>         0.0790
     25 C20        -6.8312   -1.0869    0.0228 C.3       1 <0>         0.0790
     26 H1          1.9471   -0.4946    1.2939 H         1 <0>         0.0488
     27 H2          2.0190    1.8980    0.3608 H         1 <0>         0.0611
     28 H3          1.7895   -2.3831   -0.3991 H         1 <0>         0.0281
     29 H4          0.3157   -1.5191   -0.0741 H         1 <0>         0.0281
     30 H5          0.6766    2.3207   -1.7613 H         1 <0>         0.0291
     31 H6          2.1509    1.4655   -2.0146 H         1 <0>         0.0291
     32 H7          3.9975   -2.2562   -0.5866 H         1 <0>         0.0452
     33 H8          3.8192   -1.9186    1.1500 H         1 <0>         0.0452
     34 H9          4.0123    0.8009    1.6241 H         1 <0>         0.0427
     35 H10         4.0124    1.8061    0.1425 H         1 <0>         0.0427
     36 H11         0.5116   -1.9085   -2.4679 H         1 <0>         0.0266
     37 H12         2.0853   -1.1229   -2.5254 H         1 <0>         0.0266
     38 H13        -0.6019    0.1832   -1.8751 H         1 <0>         0.0266
     39 H14         0.3788    0.4377   -3.3151 H         1 <0>         0.0266
     40 H15         6.1851   -1.4962   -0.6135 H         1 <0>         0.0606
     41 H16         6.3267    0.8501    0.9751 H         1 <0>         0.0303
     42 H17         5.9091    0.7896   -0.7528 H         1 <0>         0.0303
     43 H18        -0.6540    2.7316   -0.4967 H         1 <0>         0.0563
     44 H19         0.2945    3.2387    0.9254 H         1 <0>         0.0563
     45 H20         5.7429   -1.2051    2.1883 H         1 <0>         0.2098
     46 H21        -1.5148    2.3361    2.3746 H         1 <0>         0.0335
     47 H22        -2.1078    3.5740    1.2812 H         1 <0>         0.0335
     48 H23        -2.1009   -0.0090    2.1059 H         1 <0>         0.0658
     49 H24        -3.5664    2.9889   -0.6137 H         1 <0>         0.0621
     50 H25        -5.2512    1.3996   -1.4610 H         1 <0>         0.0655
     51 H26        -3.1721   -3.8060    1.2367 H         1 <0>         0.0660
     52 H27        -3.2886   -2.9648   -0.3247 H         1 <0>         0.0660
     53 H28        -1.9395   -2.6018    0.8010 H         1 <0>         0.0660
     54 H29        -7.4627   -1.8334   -0.4668 H         1 <0>         0.0660
     55 H30        -6.7163   -1.3622    1.0759 H         1 <0>         0.0660
     56 H31        -7.3166   -0.1093   -0.0596 H         1 <0>         0.0660
@<TRIPOS>BOND
     1    1    7 1
     2    1   16 1
     3    2   14 1
     4    2   45 1
     5    3   21 1
     6    3   24 1
     7    4   23 1
     8    4   25 1
     9    5    6 1
    10    5   10 1
    11    5   11 1
    12    6    7 1
    13    6    8 1
    14    6   26 1
    15    7    9 1
    16    7   27 1
    17    8   12 1
    18    8   28 1
    19    8   29 1
    20    9   13 1
    21    9   30 1
    22    9   31 1
    23   10   14 1
    24   10   32 1
    25   10   33 1
    26   11   15 1
    27   11   34 1
    28   11   35 1
    29   12   13 1
    30   12   36 1
    31   12   37 1
    32   13   38 1
    33   13   39 1
    34   14   15 1
    35   14   40 1
    36   15   41 1
    37   15   42 1
    38   16   17 1
    39   16   43 1
    40   16   44 1
    41   17   18 1
    42   17   46 1
    43   17   47 1
    44   18   19 ar
    45   18   20 ar
    46   19   21 ar
    47   19   48 1
    48   20   22 ar
    49   20   49 1
    50   21   23 ar
    51   22   23 ar
    52   22   50 1
    53   24   51 1
    54   24   52 1
    55   24   53 1
    56   25   54 1
    57   25   55 1
    58   25   56 1
