@<TRIPOS>MOLECULE
DB06736
   36    37     0     0     0
SMALL
USER_CHARGES

@<TRIPOS>ATOM
      1 Cl1        -1.3950    1.4816   -2.3238 Cl        1 <0>        -0.0816
      2 Cl2        -2.9907    0.2736    2.7553 Cl        1 <0>        -0.0816
      3 O1          3.3444    0.3588    0.4419 O.3       1 <0>        -0.4529
      4 O2          2.1242   -0.4211   -1.3534 O.2       1 <0>        -0.2505
      5 O3          6.1796    2.3443   -0.5163 O.3       1 <0>        -0.4783
      6 O4          5.3952    1.7767    1.5454 O.2       1 <0>        -0.2472
      7 N1         -1.1455    0.1325    0.3676 N.pl3     1 <0>        -0.3120
      8 C1          0.3483   -1.7974    0.3758 C.ar      1 <0>        -0.0156
      9 C2         -0.9023   -1.2361    0.1180 C.ar      1 <0>         0.0351
     10 C3          1.4673   -0.9727    0.9234 C.3       1 <0>         0.0718
     11 C4          0.5710   -3.1509    0.1223 C.ar      1 <0>        -0.0563
     12 C5         -1.9303   -2.0281   -0.3932 C.ar      1 <0>        -0.0403
     13 C6         -2.2842    0.9428    0.2025 C.ar      1 <0>         0.0684
     14 C7         -0.4570   -3.9431   -0.3889 C.ar      1 <0>        -0.0614
     15 C8         -1.7078   -3.3816   -0.6466 C.ar      1 <0>        -0.0600
     16 C9          2.3235   -0.3311   -0.1495 C.2       1 <0>         0.3120
     17 C10        -2.5029    1.6167   -1.0043 C.ar      1 <0>         0.0635
     18 C11        -3.2093    1.0816    1.2434 C.ar      1 <0>         0.0635
     19 C12        -3.6322    2.4187   -1.1685 C.ar      1 <0>        -0.0415
     20 C13        -4.3386    1.8836    1.0793 C.ar      1 <0>        -0.0415
     21 C14        -4.5502    2.5520   -0.1266 C.ar      1 <0>        -0.0589
     22 C15         4.2405    1.0228   -0.4550 C.3       1 <0>         0.1886
     23 C16         5.3073    1.7370    0.3273 C.2       1 <0>         0.3428
     24 H1          1.1063   -0.2024    1.6131 H         1 <0>         0.0427
     25 H2          2.1249   -1.6191    1.5200 H         1 <0>         0.0427
     26 H3         -0.3068    0.6963    0.4622 H         1 <0>         0.1522
     27 H4          1.5408   -3.6022    0.3152 H         1 <0>         0.0621
     28 H5         -2.9145   -1.6187   -0.6041 H         1 <0>         0.0636
     29 H6         -0.2835   -4.9967   -0.5871 H         1 <0>         0.0618
     30 H7         -2.5080   -3.9986   -1.0448 H         1 <0>         0.0618
     31 H8         -3.8123    2.9464   -2.1017 H         1 <0>         0.0633
     32 H9         -5.0639    1.9985    1.8810 H         1 <0>         0.0633
     33 H10        -5.4297    3.1765   -0.2544 H         1 <0>         0.0618
     34 H11         4.7190    0.2799   -1.1019 H         1 <0>         0.0816
     35 H12         3.6842    1.7610   -1.0423 H         1 <0>         0.0816
     36 H13         6.8881    2.8186   -0.0311 H         1 <0>         0.2952
@<TRIPOS>BOND
     1    1   17 1
     2    2   18 1
     3    3   16 1
     4    3   22 1
     5    4   16 2
     6    5   23 1
     7    5   36 1
     8    6   23 2
     9    7    9 1
    10    7   13 1
    11    7   26 1
    12    8    9 ar
    13    8   10 1
    14    8   11 ar
    15    9   12 ar
    16   10   16 1
    17   10   24 1
    18   10   25 1
    19   11   14 ar
    20   11   27 1
    21   12   15 ar
    22   12   28 1
    23   13   17 ar
    24   13   18 ar
    25   14   15 ar
    26   14   29 1
    27   15   30 1
    28   17   19 ar
    29   18   20 ar
    30   19   21 ar
    31   19   31 1
    32   20   21 ar
    33   20   32 1
    34   21   33 1
    35   22   23 1
    36   22   34 1
    37   22   35 1
