@<TRIPOS>MOLECULE
DB06288
   52    53     0     0     0
SMALL
USER_CHARGES

@<TRIPOS>ATOM
      1 S1         -4.4441   -1.3038    0.6417 S.o2      1 <0>        -0.0016
      2 O1          0.6227    1.2849   -1.8583 O.2       1 <0>        -0.2701
      3 O2         -0.9493    3.1842   -0.9397 O.3       1 <0>        -0.4943
      4 O3         -3.6349   -2.5110    0.5901 O.2       1 <0>        -0.1693
      5 O4         -5.1504   -0.9540    1.8646 O.2       1 <0>        -0.1693
      6 N1          4.3867   -0.8381   -0.0592 N.3       1 <0>        -0.2982
      7 N2          0.6679   -0.5946   -0.4985 N.am      1 <0>        -0.3098
      8 N3         -5.2080    1.6477    0.6426 N.pl3     1 <0>        -0.3564
      9 C1          3.0094   -0.3688    0.1461 C.3       1 <0>         0.0260
     10 C2          2.7346   -0.7604    1.5995 C.3       1 <0>        -0.0347
     11 C3          4.1047   -0.8230    2.2654 C.3       1 <0>        -0.0387
     12 C4          5.0970   -0.4727    1.1690 C.3       1 <0>        -0.0007
     13 C5          2.0057   -1.0019   -0.8094 C.3       1 <0>         0.0275
     14 C6          5.0241   -0.2612   -1.2366 C.3       1 <0>        -0.0036
     15 C7          6.4666   -0.7064   -1.3610 C.3       1 <0>        -0.0523
     16 C8          0.0731    0.5344   -1.0565 C.2       1 <0>         0.2477
     17 C9         -1.3117    0.8362   -0.6114 C.ar      1 <0>         0.0801
     18 C10        -3.4247    0.0423    0.1771 C.ar      1 <0>         0.1096
     19 C11        -2.1209   -0.2206   -0.2434 C.ar      1 <0>        -0.0194
     20 C12        -1.7514    2.1441   -0.5760 C.ar      1 <0>         0.1340
     21 C13        -3.8921    1.3559    0.2207 C.ar      1 <0>         0.0532
     22 C14        -3.0554    2.4068   -0.1558 C.ar      1 <0>         0.0033
     23 C15        -5.6580   -1.3990   -0.6530 C.3       1 <0>         0.0681
     24 C16        -6.6381   -2.5253   -0.4123 C.3       1 <0>        -0.0453
     25 C17        -0.1604    3.7831    0.0860 C.3       1 <0>         0.0788
     26 H1          2.9608    0.7273    0.0694 H         1 <0>         0.0478
     27 H2          2.0896   -0.0253    2.0935 H         1 <0>         0.0281
     28 H3          2.2477   -1.7398    1.6827 H         1 <0>         0.0281
     29 H4          4.2856   -1.8358    2.6447 H         1 <0>         0.0278
     30 H5          4.1776   -0.1307    3.1102 H         1 <0>         0.0278
     31 H6          6.0266   -1.0340    1.3068 H         1 <0>         0.0427
     32 H7          5.3229    0.6009    1.2064 H         1 <0>         0.0427
     33 H8          2.0343   -2.0958   -0.7451 H         1 <0>         0.0477
     34 H9          2.2247   -0.7254   -1.8462 H         1 <0>         0.0477
     35 H10         4.4949   -0.5907   -2.1378 H         1 <0>         0.0424
     36 H11         4.9839    0.8353   -1.2222 H         1 <0>         0.0424
     37 H12         0.1842   -1.1308    0.2140 H         1 <0>         0.1491
     38 H13         7.1069   -0.2666   -0.5900 H         1 <0>         0.0242
     39 H14         6.5566   -1.7969   -1.3104 H         1 <0>         0.0242
     40 H15         6.8693   -0.3887   -2.3291 H         1 <0>         0.0242
     41 H16        -1.7759   -1.2460   -0.3161 H         1 <0>         0.0646
     42 H17        -3.4139    3.4332   -0.1247 H         1 <0>         0.0673
     43 H18        -5.1220   -1.5602   -1.5937 H         1 <0>         0.0501
     44 H19        -6.1953   -0.4505   -0.7119 H         1 <0>         0.0501
     45 H20        -7.1835   -2.3820    0.5260 H         1 <0>         0.0245
     46 H21        -6.1261   -3.4913   -0.3565 H         1 <0>         0.0245
     47 H22        -7.3686   -2.5747   -1.2258 H         1 <0>         0.0245
     48 H23        -5.8070    0.9288    1.0223 H         1 <0>         0.1424
     49 H24        -5.5175    2.6105    0.6737 H         1 <0>         0.1424
     50 H25         0.4922    3.0432    0.5604 H         1 <0>         0.0660
     51 H26         0.4632    4.5570   -0.3697 H         1 <0>         0.0660
     52 H27        -0.8046    4.2503    0.8375 H         1 <0>         0.0660
@<TRIPOS>BOND
     1    1    4 2
     2    1    5 2
     3    1   18 1
     4    1   23 1
     5    2   16 2
     6    3   20 1
     7    3   25 1
     8    6    9 1
     9    6   12 1
    10    6   14 1
    11    7   13 1
    12    7   16 am
    13    7   37 1
    14    8   21 1
    15    8   48 1
    16    8   49 1
    17    9   10 1
    18    9   13 1
    19    9   26 1
    20   10   11 1
    21   10   27 1
    22   10   28 1
    23   11   12 1
    24   11   29 1
    25   11   30 1
    26   12   31 1
    27   12   32 1
    28   13   33 1
    29   13   34 1
    30   14   15 1
    31   14   35 1
    32   14   36 1
    33   15   38 1
    34   15   39 1
    35   15   40 1
    36   16   17 1
    37   17   19 ar
    38   17   20 ar
    39   18   19 ar
    40   18   21 ar
    41   19   41 1
    42   20   22 ar
    43   21   22 ar
    44   22   42 1
    45   23   24 1
    46   23   43 1
    47   23   44 1
    48   24   45 1
    49   24   46 1
    50   24   47 1
    51   25   50 1
    52   25   51 1
    53   25   52 1
