@<TRIPOS>MOLECULE
DB06713
   53    56     0     0     0
SMALL
USER_CHARGES

@<TRIPOS>ATOM
      1 O1          4.5173   -0.9277    0.4696 O.3       1 <0>        -0.3760
      2 O2         -6.2079   -1.2458    1.4349 O.3       1 <0>        -0.4090
      3 N1         -5.8721    0.0601    1.0766 N.2       1 <0>        -0.0921
      4 C1          2.1396   -0.3766    0.0151 C.3       1 <0>         0.0136
      5 C2          1.3435    0.9142    0.3162 C.3       1 <0>        -0.0286
      6 C3          0.0425    1.0110   -0.4851 C.3       1 <0>        -0.0339
      7 C4         -0.8608   -0.2202   -0.1318 C.3       1 <0>        -0.0314
      8 C5          3.4185   -0.1234    0.8731 C.3       1 <0>         0.1319
      9 C6          1.2634   -1.5825    0.4041 C.3       1 <0>        -0.0433
     10 C7          2.3840    2.0209    0.1625 C.3       1 <0>        -0.0458
     11 C8         -0.1045   -1.5577   -0.3042 C.3       1 <0>        -0.0488
     12 C9         -2.1724   -0.1402   -0.9596 C.3       1 <0>        -0.0161
     13 C10         3.7086    1.3834    0.6328 C.3       1 <0>        -0.0118
     14 C11        -0.6980    2.3383   -0.2278 C.3       1 <0>        -0.0460
     15 C12         2.5338   -0.5271   -1.4836 C.3       1 <0>        -0.0464
     16 C13        -2.0437    2.3932   -0.9566 C.3       1 <0>        -0.0309
     17 C14        -2.8516    1.1725   -0.6064 C.2       1 <0>        -0.0644
     18 C15        -3.1389   -1.3272   -0.8167 C.3       1 <0>        -0.0407
     19 C16         3.2747   -1.8196   -1.7019 C.3       1 <0>        -0.0646
     20 C17         3.2104   -0.3629    2.3155 C.1       1 <0>        -0.0704
     21 C18        -3.9443   -1.2669    0.4689 C.3       1 <0>        -0.0067
     22 C19        -4.0245    1.2681    0.0384 C.2       1 <0>        -0.0378
     23 C20        -4.6959    0.0426    0.5385 C.2       1 <0>         0.0799
     24 C21         3.0417   -0.5575    3.4879 C.1       1 <0>        -0.1163
     25 H1          1.0494    0.9136    1.3778 H         1 <0>         0.0310
     26 H2          0.2690    0.9852   -1.5580 H         1 <0>         0.0307
     27 H3         -1.1215   -0.1449    0.9351 H         1 <0>         0.0309
     28 H4          1.0493   -1.5525    1.4802 H         1 <0>         0.0272
     29 H5          1.7388   -2.5529    0.2451 H         1 <0>         0.0272
     30 H6          2.1329    2.8992    0.7663 H         1 <0>         0.0269
     31 H7          2.4701    2.3511   -0.8788 H         1 <0>         0.0269
     32 H8          0.0173   -1.7847   -1.3691 H         1 <0>         0.0268
     33 H9         -0.7021   -2.3739    0.1182 H         1 <0>         0.0268
     34 H10        -1.8951   -0.1054   -2.0233 H         1 <0>         0.0349
     35 H11         4.4779    1.5220   -0.1368 H         1 <0>         0.0303
     36 H12         4.0775    1.8863    1.5349 H         1 <0>         0.0303
     37 H13        -0.0831    3.1832   -0.5589 H         1 <0>         0.0271
     38 H14        -0.8614    2.4675    0.8504 H         1 <0>         0.0271
     39 H15         3.1616    0.3057   -1.8192 H         1 <0>         0.0269
     40 H16         1.6594   -0.5116   -2.1406 H         1 <0>         0.0269
     41 H17        -1.8853    2.4270   -2.0412 H         1 <0>         0.0310
     42 H18        -2.5662    3.3172   -0.6830 H         1 <0>         0.0310
     43 H19        -2.6176   -2.2854   -0.8970 H         1 <0>         0.0275
     44 H20        -3.8395   -1.3012   -1.6641 H         1 <0>         0.0275
     45 H21         4.2723   -1.6135   -2.1082 H         1 <0>         0.0230
     46 H22         3.4085   -2.4850   -0.8486 H         1 <0>         0.0230
     47 H23         2.7594   -2.4085   -2.4707 H         1 <0>         0.0230
     48 H24         5.3186   -0.5840    0.9007 H         1 <0>         0.2114
     49 H25        -3.2930   -1.3392    1.3475 H         1 <0>         0.0329
     50 H26        -4.5809   -2.1550    0.4557 H         1 <0>         0.0329
     51 H27        -4.4798    2.2228    0.2761 H         1 <0>         0.0636
     52 H28         2.8911   -0.7302    4.5277 H         1 <0>         0.1229
     53 H29        -7.0912   -1.1219    1.8215 H         1 <0>         0.3278
@<TRIPOS>BOND
     1    1    8 1
     2    1   48 1
     3    2    3 1
     4    2   53 1
     5    3   23 2
     6    4    5 1
     7    4    8 1
     8    4    9 1
     9    4   15 1
    10    5    6 1
    11    5   10 1
    12    5   25 1
    13    6    7 1
    14    6   14 1
    15    6   26 1
    16    7   11 1
    17    7   12 1
    18    7   27 1
    19    8   13 1
    20    8   20 1
    21    9   11 1
    22    9   28 1
    23    9   29 1
    24   10   13 1
    25   10   30 1
    26   10   31 1
    27   11   32 1
    28   11   33 1
    29   12   17 1
    30   12   18 1
    31   12   34 1
    32   13   35 1
    33   13   36 1
    34   14   16 1
    35   14   37 1
    36   14   38 1
    37   15   19 1
    38   15   39 1
    39   15   40 1
    40   16   17 1
    41   16   41 1
    42   16   42 1
    43   17   22 2
    44   18   21 1
    45   18   43 1
    46   18   44 1
    47   19   45 1
    48   19   46 1
    49   19   47 1
    50   20   24 3
    51   21   23 1
    52   21   49 1
    53   21   50 1
    54   22   23 1
    55   22   51 1
    56   24   52 1
