@<TRIPOS>MOLECULE
DB06813
   58    60     0     0     0
SMALL
USER_CHARGES

@<TRIPOS>ATOM
      1 O1          1.8424   -3.1622   -1.6951 O.2       1 <0>        -0.2702
      2 O2          5.6465   -2.9875    1.6074 O.3       1 <0>        -0.4793
      3 O3          3.7123   -2.3532    2.6109 O.2       1 <0>        -0.2489
      4 O4          5.3149    2.4013   -0.2429 O.3       1 <0>        -0.4806
      5 O5          5.9212    0.9547   -1.8820 O.2       1 <0>        -0.2510
      6 N1          2.4399   -2.0696    0.2615 N.am      1 <0>        -0.2983
      7 N2         -2.4073    1.7655   -0.7032 N.ar      1 <0>        -0.2435
      8 N3         -3.2758    3.2841    1.4409 N.ar      1 <0>        -0.2325
      9 N4         -1.4054    4.6371    1.2592 N.ar      1 <0>        -0.1932
     10 N5          0.2466    4.2367   -0.4323 N.ar      1 <0>        -0.1978
     11 N6         -0.0349    2.4369   -1.9367 N.pl3     1 <0>        -0.3413
     12 N7          0.4893    6.0100    1.0774 N.pl3     1 <0>        -0.3274
     13 C1         -3.9729   -1.0404    0.1365 C.3       1 <0>         0.0004
     14 C2         -4.3602    0.3000   -0.5641 C.3       1 <0>        -0.0012
     15 C3         -2.5471   -1.4202   -0.0787 C.ar      1 <0>        -0.0430
     16 C4         -4.9845   -2.1293   -0.3322 C.3       1 <0>         0.0160
     17 C5         -3.5551    1.4795   -0.0695 C.ar      1 <0>         0.0609
     18 C6         -1.6855   -1.5429    1.0112 C.ar      1 <0>        -0.0576
     19 C7         -2.0756   -1.6539   -1.3706 C.ar      1 <0>        -0.0576
     20 C8          3.8537   -2.3356    0.1795 C.3       1 <0>         0.1209
     21 C9          0.1194   -2.1330   -0.4824 C.ar      1 <0>         0.0367
     22 C10         4.6138   -1.2612   -0.6077 C.3       1 <0>        -0.0140
     23 C11        -0.3521   -1.8994    0.8093 C.ar      1 <0>        -0.0494
     24 C12        -0.7424   -2.0104   -1.5724 C.ar      1 <0>        -0.0494
     25 C13         1.5396   -2.5124   -0.6978 C.2       1 <0>         0.2447
     26 C14         4.5773    0.1530   -0.0145 C.3       1 <0>         0.0470
     27 C15        -3.9839    2.2305    0.9904 C.ar      1 <0>         0.0513
     28 C16        -4.7918   -3.3970    0.3921 C.1       1 <0>        -0.1050
     29 C17        -1.7005    2.8193   -0.2514 C.ar      1 <0>         0.1476
     30 C18         4.3651   -2.5355    1.5914 C.2       1 <0>         0.3253
     31 C19        -2.1264    3.5944    0.8293 C.ar      1 <0>         0.1851
     32 C20         5.3310    1.1780   -0.8342 C.2       1 <0>         0.3048
     33 C21        -0.5060    3.1968   -0.8346 C.ar      1 <0>         0.1491
     34 C22        -4.6374   -4.4308    0.9828 C.1       1 <0>        -0.1192
     35 C23        -0.2576    4.9072    0.6100 C.ar      1 <0>         0.2163
     36 H1         -4.1386   -0.8956    1.2148 H         1 <0>         0.0362
     37 H2         -4.2330    0.2216   -1.6514 H         1 <0>         0.0335
     38 H3         -5.4257    0.5099   -0.4025 H         1 <0>         0.0335
     39 H4         -6.0080   -1.7765   -0.1548 H         1 <0>         0.0403
     40 H5         -4.8951   -2.3060   -1.4106 H         1 <0>         0.0403
     41 H6         -2.0384   -1.3705    2.0245 H         1 <0>         0.0621
     42 H7         -2.7286   -1.5638   -2.2341 H         1 <0>         0.0621
     43 H8          3.9753   -3.2973   -0.3354 H         1 <0>         0.0614
     44 H9          4.2138   -1.2206   -1.6297 H         1 <0>         0.0294
     45 H10         5.6634   -1.5672   -0.7077 H         1 <0>         0.0294
     46 H11         0.2767   -2.0140    1.6872 H         1 <0>         0.0625
     47 H12        -0.3927   -2.1836   -2.5867 H         1 <0>         0.0625
     48 H13         2.1281   -1.4673    1.0163 H         1 <0>         0.1498
     49 H14         3.5389    0.4938    0.0630 H         1 <0>         0.0378
     50 H15         5.0196    0.1411    0.9877 H         1 <0>         0.0378
     51 H16        -4.9043    2.0225    1.5223 H         1 <0>         0.0848
     52 H17        -4.4997   -5.3474    1.5071 H         1 <0>         0.1228
     53 H18         5.9715   -3.1321    2.5216 H         1 <0>         0.2951
     54 H19         0.8465    2.7197   -2.3470 H         1 <0>         0.1438
     55 H20        -0.3026    1.4619   -1.9944 H         1 <0>         0.1438
     56 H21         5.8174    3.0648   -0.7620 H         1 <0>         0.2951
     57 H22         1.3584    6.2509    0.6214 H         1 <0>         0.1452
     58 H23         0.1466    6.5454    1.8630 H         1 <0>         0.1452
@<TRIPOS>BOND
     1    1   25 2
     2    2   30 1
     3    2   53 1
     4    3   30 2
     5    4   32 1
     6    4   56 1
     7    5   32 2
     8    6   20 1
     9    6   25 am
    10    6   48 1
    11    7   17 ar
    12    7   29 ar
    13    8   27 ar
    14    8   31 ar
    15    9   31 ar
    16    9   35 ar
    17   10   33 ar
    18   10   35 ar
    19   11   33 1
    20   11   54 1
    21   11   55 1
    22   12   35 1
    23   12   57 1
    24   12   58 1
    25   13   14 1
    26   13   15 1
    27   13   16 1
    28   13   36 1
    29   14   17 1
    30   14   37 1
    31   14   38 1
    32   15   18 ar
    33   15   19 ar
    34   16   28 1
    35   16   39 1
    36   16   40 1
    37   17   27 ar
    38   18   23 ar
    39   18   41 1
    40   19   24 ar
    41   19   42 1
    42   20   22 1
    43   20   30 1
    44   20   43 1
    45   21   23 ar
    46   21   24 ar
    47   21   25 1
    48   22   26 1
    49   22   44 1
    50   22   45 1
    51   23   46 1
    52   24   47 1
    53   26   32 1
    54   26   49 1
    55   26   50 1
    56   27   51 1
    57   28   34 3
    58   29   31 ar
    59   29   33 ar
    60   34   52 1
