@<TRIPOS>MOLECULE
DB06480
   51    53     0     0     0
SMALL
USER_CHARGES

@<TRIPOS>ATOM
      1 Cl1        -7.5036   -0.3606   -0.6424 Cl        1 <0>        -0.0816
      2 O1         -1.8322    0.8890    0.0521 O.3       1 <0>        -0.4905
      3 O2          5.9807    1.2955   -0.9845 O.3       1 <0>        -0.3829
      4 O3         -2.7982   -2.7303   -1.5300 O.2       1 <0>        -0.2701
      5 N1          2.2495   -1.4232    0.4939 N.3       1 <0>        -0.3021
      6 N2         -1.3846   -1.7652    0.0345 N.am      1 <0>        -0.3083
      7 N3         -6.3262    2.3307    0.1644 N.pl3     1 <0>        -0.3565
      8 C1         -0.3176   -2.7336   -0.0831 C.3       1 <0>         0.0257
      9 C2          0.6711   -2.3350   -1.1813 C.3       1 <0>        -0.0216
     10 C3          0.4180   -2.9085    1.2476 C.3       1 <0>        -0.0216
     11 C4          1.5471   -1.1486   -0.7667 C.3       1 <0>         0.0006
     12 C5          1.3019   -1.7027    1.5812 C.3       1 <0>         0.0006
     13 C6          3.1208   -0.3033    0.8492 C.3       1 <0>         0.0010
     14 C7          4.1259   -0.0396   -0.2673 C.3       1 <0>        -0.0167
     15 C8         -2.5504   -1.8492   -0.7110 C.2       1 <0>         0.2479
     16 C9         -3.5245   -0.7774   -0.4967 C.ar      1 <0>         0.0800
     17 C10         5.0624    1.1087    0.0836 C.3       1 <0>         0.0485
     18 C11        -3.1328    0.4994   -0.1441 C.ar      1 <0>         0.1377
     19 C12        -4.0506    1.5177    0.0669 C.ar      1 <0>         0.0202
     20 C13        -3.3374    2.7385    0.5008 C.3       1 <0>         0.0119
     21 C14        -1.9128    2.3327    0.1194 C.3       1 <0>         0.0938
     22 C15        -4.8911   -1.0183   -0.6506 C.ar      1 <0>        -0.0259
     23 C16        -5.4071    1.2901   -0.0720 C.ar      1 <0>         0.0500
     24 C17        -5.8265    0.0090   -0.4410 C.ar      1 <0>         0.0628
     25 C18         6.8733    2.3704   -0.7235 C.3       1 <0>         0.0364
     26 H1         -0.7732   -3.6931   -0.3568 H         1 <0>         0.0499
     27 H2          1.3181   -3.1935   -1.4063 H         1 <0>         0.0295
     28 H3          0.1391   -2.0891   -2.1085 H         1 <0>         0.0295
     29 H4         -0.2984   -3.0717    2.0618 H         1 <0>         0.0295
     30 H5          1.0477   -3.8064    1.1931 H         1 <0>         0.0295
     31 H6          0.9395   -0.2375   -0.6936 H         1 <0>         0.0427
     32 H7          2.2371   -1.0226   -1.6046 H         1 <0>         0.0427
     33 H8          1.8547   -1.9350    2.4998 H         1 <0>         0.0427
     34 H9          0.6796   -0.8246    1.7960 H         1 <0>         0.0427
     35 H10         2.5363    0.6049    1.0466 H         1 <0>         0.0427
     36 H11         3.6705   -0.5441    1.7677 H         1 <0>         0.0427
     37 H12        -1.2511   -0.9878    0.6733 H         1 <0>         0.1493
     38 H13         3.6495    0.2554   -1.2071 H         1 <0>         0.0300
     39 H14         4.7142   -0.9402   -0.4845 H         1 <0>         0.0300
     40 H15         4.4877    2.0294    0.2398 H         1 <0>         0.0560
     41 H16         5.6143    0.8766    1.0021 H         1 <0>         0.0560
     42 H17        -3.6474    3.6488   -0.0185 H         1 <0>         0.0348
     43 H18        -3.4329    2.8703    1.5834 H         1 <0>         0.0348
     44 H19        -1.1806    2.7020    0.8449 H         1 <0>         0.0700
     45 H20        -1.6400    2.7278   -0.8675 H         1 <0>         0.0700
     46 H21        -5.2392   -2.0116   -0.9283 H         1 <0>         0.0641
     47 H22        -6.0032    3.2524    0.4251 H         1 <0>         0.1424
     48 H23        -7.3166    2.1591    0.0514 H         1 <0>         0.1424
     49 H24         6.3215    3.3088   -0.6120 H         1 <0>         0.0523
     50 H25         7.4628    2.1699    0.1763 H         1 <0>         0.0523
     51 H26         7.5548    2.4656   -1.5731 H         1 <0>         0.0523
@<TRIPOS>BOND
     1    1   24 1
     2    2   18 1
     3    2   21 1
     4    3   17 1
     5    3   25 1
     6    4   15 2
     7    5   11 1
     8    5   12 1
     9    5   13 1
    10    6    8 1
    11    6   15 am
    12    6   37 1
    13    7   23 1
    14    7   47 1
    15    7   48 1
    16    8    9 1
    17    8   10 1
    18    8   26 1
    19    9   11 1
    20    9   27 1
    21    9   28 1
    22   10   12 1
    23   10   29 1
    24   10   30 1
    25   11   31 1
    26   11   32 1
    27   12   33 1
    28   12   34 1
    29   13   14 1
    30   13   35 1
    31   13   36 1
    32   14   17 1
    33   14   38 1
    34   14   39 1
    35   15   16 1
    36   16   18 ar
    37   16   22 ar
    38   17   40 1
    39   17   41 1
    40   18   19 ar
    41   19   20 1
    42   19   23 ar
    43   20   21 1
    44   20   42 1
    45   20   43 1
    46   21   44 1
    47   21   45 1
    48   22   24 ar
    49   22   46 1
    50   23   24 ar
    51   25   49 1
    52   25   50 1
    53   25   51 1
