@<TRIPOS>MOLECULE
DB06820
   39    41     0     0     0
SMALL
USER_CHARGES

@<TRIPOS>ATOM
      1 Cl1        -1.2742    0.0393   -2.7391 Cl        1 <0>        -0.0832
      2 Cl2        -2.0894    4.9636   -0.7252 Cl        1 <0>        -0.0835
      3 Cl3         7.6390   -0.2838    0.5695 Cl        1 <0>        -0.0835
      4 S1          0.7816   -1.0336    0.8869 S.3       1 <0>        -0.1462
      5 N1         -3.2458   -1.5737    0.5259 N.pl3     1 <0>        -0.3355
      6 N2         -4.9827   -2.2881   -0.6203 N.2       1 <0>        -0.2441
      7 C1         -0.8731   -0.8458    0.1860 C.3       1 <0>         0.0498
      8 C2         -1.8978   -1.5468    1.0978 C.3       1 <0>         0.0401
      9 C3         -1.1817    0.6157   -0.0767 C.ar      1 <0>        -0.0144
     10 C4          1.7295   -0.3019   -0.4820 C.3       1 <0>         0.0194
     11 C5         -1.3729    1.0803   -1.3659 C.ar      1 <0>         0.0466
     12 C6         -1.2637    1.4595    1.0177 C.ar      1 <0>        -0.0547
     13 C7          3.1982   -0.2970   -0.2216 C.ar      1 <0>        -0.0375
     14 C8         -4.1956   -0.6261    0.7049 C.cat     1 <0>         0.0240
     15 C9         -3.7437   -2.5512   -0.2681 C.cat     1 <0>         0.0959
     16 C10        -1.6550    2.4315   -1.5679 C.ar      1 <0>        -0.0247
     17 C11        -1.5458    2.8104    0.8157 C.ar      1 <0>        -0.0430
     18 C12        -1.7413    3.2966   -0.4771 C.ar      1 <0>         0.0424
     19 C13        -5.2702   -1.0892   -0.0175 C.2       1 <0>         0.0454
     20 C14         3.9799   -1.3828   -0.6155 C.ar      1 <0>        -0.0564
     21 C15         3.7896    0.7930    0.4170 C.ar      1 <0>        -0.0564
     22 C16         5.3532   -1.3788   -0.3711 C.ar      1 <0>        -0.0431
     23 C17         5.1629    0.7973    0.6615 C.ar      1 <0>        -0.0431
     24 C18         5.9449   -0.2887    0.2674 C.ar      1 <0>         0.0410
     25 H1         -0.8549   -1.4322   -0.7356 H         1 <0>         0.0479
     26 H2         -1.9854   -1.0739    2.0838 H         1 <0>         0.0506
     27 H3         -1.6201   -2.5955    1.2676 H         1 <0>         0.0506
     28 H4          1.5209   -0.8618   -1.4007 H         1 <0>         0.0425
     29 H5          1.4122    0.7304   -0.6589 H         1 <0>         0.0425
     30 H6         -1.1156    1.1068    2.0340 H         1 <0>         0.0622
     31 H7         -4.0540    0.2596    1.3077 H         1 <0>         0.0825
     32 H8         -3.1772   -3.4241   -0.5628 H         1 <0>         0.1029
     33 H9         -1.8081    2.8122   -2.5755 H         1 <0>         0.0647
     34 H10        -1.6101    3.4730    1.6750 H         1 <0>         0.0632
     35 H11        -6.2371   -0.6212   -0.1318 H         1 <0>         0.0845
     36 H12         3.5315   -2.2390   -1.1128 H         1 <0>         0.0621
     37 H13         3.1919    1.6449    0.7304 H         1 <0>         0.0621
     38 H14         5.9499   -2.2320   -0.6832 H         1 <0>         0.0632
     39 H15         5.6101    1.6533    1.1603 H         1 <0>         0.0632
@<TRIPOS>BOND
     1    1   11 1
     2    2   18 1
     3    3   24 1
     4    4    7 1
     5    4   10 1
     6    5    8 1
     7    5   14 1
     8    5   15 2
     9    6   15 1
    10    6   19 2
    11    7    8 1
    12    7    9 1
    13    7   25 1
    14    8   26 1
    15    8   27 1
    16    9   11 ar
    17    9   12 ar
    18   10   13 1
    19   10   28 1
    20   10   29 1
    21   11   16 ar
    22   12   17 ar
    23   12   30 1
    24   13   20 ar
    25   13   21 ar
    26   14   19 1
    27   14   31 1
    28   15   32 1
    29   16   18 ar
    30   16   33 1
    31   17   18 ar
    32   17   34 1
    33   19   35 1
    34   20   22 ar
    35   20   36 1
    36   21   23 ar
    37   21   37 1
    38   22   24 ar
    39   22   38 1
    40   23   24 ar
    41   23   39 1
