@<TRIPOS>MOLECULE
DB06711
   30    32     0     0     0
SMALL
USER_CHARGES

@<TRIPOS>ATOM
      1 N1         -2.8861   -0.6767   -0.0467 N.pl3     1 <0>        -0.2335
      2 N2         -2.0438    1.4362   -0.1167 N.2       1 <0>        -0.0837
      3 C1         -0.9042   -0.2472   -1.4869 C.3       1 <0>         0.0759
      4 C2          0.2969   -0.7679   -0.7599 C.ar      1 <0>        -0.0282
      5 C3         -1.9654    0.1990   -0.5367 C.2       1 <0>         0.2854
      6 C4          1.3634    0.0674   -0.3894 C.ar      1 <0>        -0.0142
      7 C5         -3.7605   -0.0090    0.8692 C.3       1 <0>         0.1194
      8 C6         -3.2263    1.4295    0.7991 C.3       1 <0>         0.1671
      9 C7          2.4711   -0.4867    0.2956 C.ar      1 <0>        -0.0176
     10 C8          0.3221   -2.1300   -0.4592 C.ar      1 <0>        -0.0574
     11 C9          1.3549    1.4405   -0.6837 C.ar      1 <0>        -0.0538
     12 C10         2.4795   -1.8599    0.5897 C.ar      1 <0>        -0.0540
     13 C11         1.4113   -2.6750    0.2143 C.ar      1 <0>        -0.0609
     14 C12         3.5377    0.3486    0.6659 C.ar      1 <0>        -0.0540
     15 C13         2.4231    2.2556   -0.3082 C.ar      1 <0>        -0.0612
     16 C14         3.5124    1.7108    0.3654 C.ar      1 <0>        -0.0612
     17 H1         -0.6627    0.5538   -2.1917 H         1 <0>         0.0436
     18 H2         -1.3255   -1.0417   -2.1179 H         1 <0>         0.0436
     19 H3         -3.6681   -0.4206    1.8786 H         1 <0>         0.0765
     20 H4         -4.8042   -0.0673    0.5475 H         1 <0>         0.0765
     21 H5         -3.9892    2.1118    0.4094 H         1 <0>         0.0829
     22 H6         -2.9237    1.7837    1.7900 H         1 <0>         0.0829
     23 H7         -2.9435   -1.6651   -0.2594 H         1 <0>         0.2912
     24 H8         -0.5012   -2.7810   -0.7423 H         1 <0>         0.0621
     25 H9          0.5345    1.9272   -1.2006 H         1 <0>         0.0624
     26 H10         3.3203   -2.3075    1.1155 H         1 <0>         0.0624
     27 H11         1.4303   -3.7353    0.4484 H         1 <0>         0.0618
     28 H12         4.3992   -0.0558    1.1930 H         1 <0>         0.0624
     29 H13         2.4042    3.3166   -0.5401 H         1 <0>         0.0618
     30 H14         4.3434    2.3461    0.6578 H         1 <0>         0.0618
@<TRIPOS>BOND
     1    1    5 1
     2    1    7 1
     3    1   23 1
     4    2    5 2
     5    2    8 1
     6    3    4 1
     7    3    5 1
     8    3   17 1
     9    3   18 1
    10    4    6 ar
    11    4   10 ar
    12    6    9 ar
    13    6   11 ar
    14    7    8 1
    15    7   19 1
    16    7   20 1
    17    8   21 1
    18    8   22 1
    19    9   12 ar
    20    9   14 ar
    21   10   13 ar
    22   10   24 1
    23   11   15 ar
    24   11   25 1
    25   12   13 ar
    26   12   26 1
    27   13   27 1
    28   14   16 ar
    29   14   28 1
    30   15   16 ar
    31   15   29 1
    32   16   30 1
