@<TRIPOS>MOLECULE
DB06614
   51    51     0     0     0
SMALL
USER_CHARGES

@<TRIPOS>ATOM
      1 O1         -0.2347    1.8310    2.1579 O.3       1 <0>        -0.3905
      2 O2         -3.1359    4.4465   -0.0581 O.3       1 <0>        -0.4804
      3 O3         -1.3028    3.8572   -1.2783 O.2       1 <0>        -0.2506
      4 O4          0.3629   -2.7113    1.5817 O.2       1 <0>        -0.2761
      5 N1          0.6345   -1.3973   -0.3198 N.am      1 <0>        -0.3120
      6 N2         -2.0698   -0.8336   -0.8512 N.2       1 <0>        -0.1100
      7 N3         -3.4930   -2.0220    0.6757 N.pl3     1 <0>        -0.2892
      8 N4         -3.2098   -2.7510   -1.4651 N.pl3     1 <0>        -0.2892
      9 C1         -0.4059    0.7879   -0.0384 C.3       1 <0>         0.0414
     10 C2         -0.5042    2.0810    0.7815 C.3       1 <0>         0.0760
     11 C3         -1.7687    0.1383    0.1969 C.3       1 <0>         0.1229
     12 C4          0.7590   -0.1153    0.3443 C.3       1 <0>         0.0344
     13 C5         -1.9639    2.5317    0.6310 C.3       1 <0>         0.0858
     14 C6         -2.7429    1.3117    0.1205 C.3       1 <0>        -0.0000
     15 C7          2.1627    0.4998    0.0769 C.3       1 <0>        -0.0226
     16 C8          2.3368    0.9041   -1.4093 C.3       1 <0>        -0.0514
     17 C9          3.3243   -0.4156    0.5319 C.3       1 <0>        -0.0514
     18 C10        -2.0693    3.6613   -0.3469 C.2       1 <0>         0.3104
     19 C11         3.6674    1.5846   -1.7073 C.3       1 <0>        -0.0650
     20 C12         3.2833   -0.7950    2.0062 C.3       1 <0>        -0.0650
     21 C13         0.4470   -2.5841    0.3631 C.2       1 <0>         0.2102
     22 C14        -2.8762   -1.7954   -0.5345 C.2       1 <0>         0.3768
     23 C15         0.3247   -3.7603   -0.5685 C.3       1 <0>         0.0122
     24 H1         -0.3574    1.0425   -1.1051 H         1 <0>         0.0379
     25 H2          0.2233    2.8259    0.4450 H         1 <0>         0.0606
     26 H3         -1.7710   -0.2988    1.2024 H         1 <0>         0.0734
     27 H4          0.6886   -0.3073    1.4206 H         1 <0>         0.0506
     28 H5         -2.3572    2.8681    1.5984 H         1 <0>         0.0440
     29 H6         -3.6257    1.1219    0.7415 H         1 <0>         0.0309
     30 H7         -3.1062    1.4632   -0.9040 H         1 <0>         0.0309
     31 H8          2.2369    1.4209    0.6710 H         1 <0>         0.0319
     32 H9          0.6721   -1.4105   -1.3346 H         1 <0>         0.1490
     33 H10         2.2368    0.0306   -2.0631 H         1 <0>         0.0266
     34 H11         1.5553    1.6138   -1.6972 H         1 <0>         0.0266
     35 H12         3.3569   -1.3270   -0.0768 H         1 <0>         0.0266
     36 H13         4.2788    0.0981    0.3731 H         1 <0>         0.0266
     37 H14        -0.9217    1.2408    2.5100 H         1 <0>         0.2098
     38 H15         3.6520    2.0035   -2.7191 H         1 <0>         0.0230
     39 H16         4.5022    0.8792   -1.6656 H         1 <0>         0.0230
     40 H17         3.8597    2.4033   -1.0069 H         1 <0>         0.0230
     41 H18         3.1998    0.0960    2.6366 H         1 <0>         0.0230
     42 H19         2.4550   -1.4634    2.2419 H         1 <0>         0.0230
     43 H20         4.2066   -1.3157    2.2815 H         1 <0>         0.0230
     44 H21        -3.2219    5.1937   -0.6878 H         1 <0>         0.2951
     45 H22        -0.3476   -4.5016   -0.1273 H         1 <0>         0.0322
     46 H23        -0.0812   -3.4647   -1.5399 H         1 <0>         0.0322
     47 H24         1.3126   -4.2059   -0.7118 H         1 <0>         0.0322
     48 H25        -3.4016   -1.4017    1.4710 H         1 <0>         0.2546
     49 H26        -4.1021   -2.8237    0.8017 H         1 <0>         0.2546
     50 H27        -3.8374   -3.5150   -1.2398 H         1 <0>         0.2546
     51 H28        -2.8311   -2.7204   -2.4055 H         1 <0>         0.2546
@<TRIPOS>BOND
     1    1   10 1
     2    1   37 1
     3    2   18 1
     4    2   44 1
     5    3   18 2
     6    4   21 2
     7    5   12 1
     8    5   21 am
     9    5   32 1
    10    6   11 1
    11    6   22 2
    12    7   22 1
    13    7   48 1
    14    7   49 1
    15    8   22 1
    16    8   50 1
    17    8   51 1
    18    9   10 1
    19    9   11 1
    20    9   12 1
    21    9   24 1
    22   10   13 1
    23   10   25 1
    24   11   14 1
    25   11   26 1
    26   12   15 1
    27   12   27 1
    28   13   14 1
    29   13   18 1
    30   13   28 1
    31   14   29 1
    32   14   30 1
    33   15   16 1
    34   15   17 1
    35   15   31 1
    36   16   19 1
    37   16   33 1
    38   16   34 1
    39   17   20 1
    40   17   35 1
    41   17   36 1
    42   19   38 1
    43   19   39 1
    44   19   40 1
    45   20   41 1
    46   20   42 1
    47   20   43 1
    48   21   23 1
    49   23   45 1
    50   23   46 1
    51   23   47 1
