@<TRIPOS>MOLECULE
DB06691
   44    45     0     0     0
SMALL
USER_CHARGES

@<TRIPOS>ATOM
      1 O1         -5.6084   -0.1337    0.6569 O.3       1 <0>        -0.4951
      2 N1          0.5515    0.3630   -0.7143 N.pl3     1 <0>        -0.3096
      3 N2          3.3090   -2.0938   -0.1710 N.3       1 <0>        -0.3069
      4 N3          0.8662    2.7107   -0.9707 N.ar      1 <0>        -0.2403
      5 C1          1.1843   -0.8777   -0.2804 C.3       1 <0>         0.0266
      6 C2          2.6711   -0.8575   -0.6219 C.3       1 <0>         0.0141
      7 C3         -0.5053    0.2800   -1.7133 C.3       1 <0>         0.0386
      8 C4         -1.8673    0.1696   -1.0811 C.ar      1 <0>        -0.0299
      9 C5          0.9568    1.5924   -0.1967 C.ar      1 <0>         0.1215
     10 C6         -2.5819    1.3234   -0.7921 C.ar      1 <0>        -0.0536
     11 C7         -2.3880   -1.0848   -0.7959 C.ar      1 <0>        -0.0536
     12 C8          3.1328   -2.2633    1.2709 C.3       1 <0>        -0.0130
     13 C9          4.7303   -2.0909   -0.5154 C.3       1 <0>        -0.0130
     14 C10         1.4451    1.6260    1.1110 C.ar      1 <0>        -0.0217
     15 C11        -3.8435    1.2207   -0.2056 C.ar      1 <0>        -0.0196
     16 C12        -3.6493   -1.1874   -0.2096 C.ar      1 <0>        -0.0196
     17 C13        -4.3772   -0.0346    0.0856 C.ar      1 <0>         0.1201
     18 C14         1.8530    2.8449    1.6412 C.ar      1 <0>        -0.0571
     19 C15         1.2723    3.8773   -0.4213 C.ar      1 <0>         0.0297
     20 C16         1.7683    3.9968    0.8669 C.ar      1 <0>        -0.0435
     21 C17        -6.1092   -1.4264    0.9344 C.3       1 <0>         0.0788
     22 H1          0.9651   -1.0262    0.7800 H         1 <0>         0.0477
     23 H2          0.7240   -1.7365   -0.7871 H         1 <0>         0.0477
     24 H3          2.7764   -0.7672   -1.7113 H         1 <0>         0.0442
     25 H4          3.1817    0.0097   -0.1873 H         1 <0>         0.0442
     26 H5         -0.3397   -0.5836   -2.3718 H         1 <0>         0.0513
     27 H6         -0.4818    1.1377   -2.3985 H         1 <0>         0.0513
     28 H7         -2.1775    2.3063   -1.0156 H         1 <0>         0.0622
     29 H8         -1.8302   -1.9891   -1.0222 H         1 <0>         0.0622
     30 H9          3.4029   -1.3645    1.8374 H         1 <0>         0.0391
     31 H10         3.7623   -3.0837    1.6375 H         1 <0>         0.0391
     32 H11         2.1126   -2.5641    1.5274 H         1 <0>         0.0391
     33 H12         5.2755   -1.2792   -0.0199 H         1 <0>         0.0391
     34 H13         4.8644   -1.9860   -1.5979 H         1 <0>         0.0391
     35 H14         5.1972   -3.0417   -0.2347 H         1 <0>         0.0391
     36 H15         1.5059    0.7527    1.7499 H         1 <0>         0.0652
     37 H16        -4.4058    2.1224    0.0216 H         1 <0>         0.0654
     38 H17        -4.0077   -2.1913   -0.0084 H         1 <0>         0.0654
     39 H18         2.2320    2.8986    2.6574 H         1 <0>         0.0619
     40 H19         1.1851    4.7456   -1.0658 H         1 <0>         0.0830
     41 H20         2.0793    4.9579    1.2598 H         1 <0>         0.0633
     42 H21        -6.2467   -2.0126    0.0192 H         1 <0>         0.0660
     43 H22        -7.0990   -1.3062    1.3870 H         1 <0>         0.0660
     44 H23        -5.4868   -1.9536    1.6656 H         1 <0>         0.0660
@<TRIPOS>BOND
     1    1   17 1
     2    1   21 1
     3    2    5 1
     4    2    7 1
     5    2    9 1
     6    3    6 1
     7    3   12 1
     8    3   13 1
     9    4    9 ar
    10    4   19 ar
    11    5    6 1
    12    5   22 1
    13    5   23 1
    14    6   24 1
    15    6   25 1
    16    7    8 1
    17    7   26 1
    18    7   27 1
    19    8   10 ar
    20    8   11 ar
    21    9   14 ar
    22   10   15 ar
    23   10   28 1
    24   11   16 ar
    25   11   29 1
    26   12   30 1
    27   12   31 1
    28   12   32 1
    29   13   33 1
    30   13   34 1
    31   13   35 1
    32   14   18 ar
    33   14   36 1
    34   15   17 ar
    35   15   37 1
    36   16   17 ar
    37   16   38 1
    38   18   20 ar
    39   18   39 1
    40   19   20 ar
    41   19   40 1
    42   20   41 1
    43   21   42 1
    44   21   43 1
    45   21   44 1
