@<TRIPOS>MOLECULE
DB06709
   29    28     0     0     0
SMALL
USER_CHARGES

@<TRIPOS>ATOM
      1 O1         -1.2275    0.2795   -0.0521 O.3       1 <0>        -0.4564
      2 O2         -2.7783   -0.0795    1.6221 O.2       1 <0>        -0.2512
      3 N1          1.6257    0.2103   -0.0260 N.4       1 <0>         0.2395
      4 C1          0.7796   -0.9529   -0.5232 C.3       1 <0>         0.0069
      5 C2         -0.5823   -0.9733    0.1633 C.3       1 <0>         0.1396
      6 C3          1.7917    0.1083    1.4834 C.3       1 <0>        -0.0417
      7 C4          2.9937    0.1632   -0.6912 C.3       1 <0>        -0.0417
      8 C5          0.9379    1.5228   -0.3729 C.3       1 <0>        -0.0417
      9 C6         -1.4947   -2.1023   -0.2981 C.3       1 <0>        -0.0226
     10 C7         -2.4343    0.4375    0.5677 C.2       1 <0>         0.3044
     11 C8         -3.3020    1.3545   -0.2397 C.3       1 <0>         0.0332
     12 H1          0.6730   -0.8299   -1.6079 H         1 <0>         0.0851
     13 H2          1.3332   -1.8786   -0.3265 H         1 <0>         0.0851
     14 H3         -0.4427   -1.1206    1.2402 H         1 <0>         0.0785
     15 H4          2.1406   -0.8988    1.7306 H         1 <0>         0.0778
     16 H5          2.5396    0.8469    1.7900 H         1 <0>         0.0778
     17 H6          0.8499    0.3375    1.9877 H         1 <0>         0.0778
     18 H7          2.8538    0.2529   -1.7726 H         1 <0>         0.0778
     19 H8          3.5984    0.9931   -0.3133 H         1 <0>         0.0778
     20 H9          3.4656   -0.7922   -0.4430 H         1 <0>         0.0778
     21 H10         0.4777    1.4536   -1.3632 H         1 <0>         0.0778
     22 H11         0.2502    1.8281    0.4192 H         1 <0>         0.0778
     23 H12         1.7128    2.2976   -0.4120 H         1 <0>         0.0778
     24 H13        -1.8094   -1.9453   -1.3358 H         1 <0>         0.0267
     25 H14        -2.4057   -2.1821    0.3018 H         1 <0>         0.0267
     26 H15        -0.9781   -3.0659   -0.2368 H         1 <0>         0.0267
     27 H16        -3.4812    0.9203   -1.2266 H         1 <0>         0.0342
     28 H17        -2.8233    2.3328   -0.3303 H         1 <0>         0.0342
     29 H18        -4.2637    1.4823    0.2653 H         1 <0>         0.0342
@<TRIPOS>BOND
     1    1    5 1
     2    1   10 1
     3    2   10 2
     4    3    4 1
     5    3    6 1
     6    3    7 1
     7    3    8 1
     8    4    5 1
     9    4   12 1
    10    4   13 1
    11    5    9 1
    12    5   14 1
    13    6   15 1
    14    6   16 1
    15    6   17 1
    16    7   18 1
    17    7   19 1
    18    7   20 1
    19    8   21 1
    20    8   22 1
    21    8   23 1
    22    9   24 1
    23    9   25 1
    24    9   26 1
    25   10   11 1
    26   11   27 1
    27   11   28 1
    28   11   29 1
