@<TRIPOS>MOLECULE
DB06209
   46    49     0     0     0
SMALL
USER_CHARGES

@<TRIPOS>ATOM
      1 S1         -3.6521    2.3534   -0.0695 S.3       1 <0>        -0.0559
      2 F1          3.4526    0.1898    2.1965 F         1 <0>        -0.2051
      3 O1          1.7319   -1.3934   -2.0757 O.2       1 <0>        -0.2951
      4 O2         -5.6122    0.6707   -0.6340 O.3       1 <0>        -0.4187
      5 O3         -5.7795   -0.7493    1.1950 O.2       1 <0>        -0.2507
      6 N1          0.3898    0.4632   -0.1472 N.3       1 <0>        -0.2846
      7 C1          1.6035   -2.8124   -0.2021 C.3       1 <0>         0.0195
      8 C2          2.6792   -3.7933   -0.5154 C.3       1 <0>        -0.0428
      9 C3          2.6236   -3.1373    0.8331 C.3       1 <0>        -0.0428
     10 C4          1.6575   -1.4684   -0.8547 C.2       1 <0>         0.1579
     11 C5          1.6319   -0.2742    0.0853 C.3       1 <0>         0.0977
     12 C6          0.3027    1.6301    0.7557 C.3       1 <0>         0.0047
     13 C7         -0.7728   -0.4388    0.0136 C.3       1 <0>         0.0259
     14 C8          2.8594    0.5983   -0.0655 C.ar      1 <0>         0.0121
     15 C9         -0.8857    2.5376    0.3798 C.3       1 <0>        -0.0082
     16 C10        -2.0488    0.3394   -0.1038 C.2       1 <0>        -0.0195
     17 C11        -2.0911    1.7047    0.0926 C.2       1 <0>        -0.0011
     18 C12        -3.3469   -0.1807   -0.3880 C.2       1 <0>        -0.0071
     19 C13         3.7031    0.7757    1.0174 C.ar      1 <0>         0.1285
     20 C14         3.1104    1.2008   -1.2860 C.ar      1 <0>        -0.0539
     21 C15        -4.3101    0.8061   -0.4013 C.2       1 <0>         0.1697
     22 C16         4.8334    1.5808    0.8750 C.ar      1 <0>        -0.0261
     23 C17         4.2406    2.0058   -1.4283 C.ar      1 <0>        -0.0613
     24 C18         5.1020    2.1960   -0.3477 C.ar      1 <0>        -0.0590
     25 C19        -6.2599   -0.1509    0.2401 C.2       1 <0>         0.3097
     26 C20        -7.7127   -0.2180   -0.1294 C.3       1 <0>         0.0337
     27 H1          0.6057   -3.2157   -0.0675 H         1 <0>         0.0378
     28 H2          3.4809   -3.5004   -1.1824 H         1 <0>         0.0272
     29 H3          2.4081   -4.8402   -0.5775 H         1 <0>         0.0272
     30 H4          2.3119   -3.7426    1.6758 H         1 <0>         0.0272
     31 H5          3.4063   -2.4260    1.0649 H         1 <0>         0.0272
     32 H6          1.6050   -0.6626    1.1124 H         1 <0>         0.0593
     33 H7          1.1892    2.2711    0.7152 H         1 <0>         0.0430
     34 H8          0.1979    1.2951    1.7972 H         1 <0>         0.0430
     35 H9         -0.7577   -0.9430    0.9888 H         1 <0>         0.0476
     36 H10        -0.7930   -1.2012   -0.7730 H         1 <0>         0.0476
     37 H11        -0.6330    3.1188   -0.5160 H         1 <0>         0.0331
     38 H12        -1.0800    3.2431    1.1956 H         1 <0>         0.0331
     39 H13        -3.5573   -1.2264   -0.5763 H         1 <0>         0.0663
     40 H14         2.4458    1.0804   -2.1357 H         1 <0>         0.0622
     41 H15         5.5036    1.7289    1.7165 H         1 <0>         0.0646
     42 H16         4.4479    2.4880   -2.3790 H         1 <0>         0.0618
     43 H17         5.9814    2.8237   -0.4582 H         1 <0>         0.0618
     44 H18        -8.1634    0.7737   -0.0419 H         1 <0>         0.0342
     45 H19        -7.8192   -0.6016   -1.1472 H         1 <0>         0.0342
     46 H20        -8.2298   -0.8986    0.5531 H         1 <0>         0.0342
@<TRIPOS>BOND
     1    1   17 1
     2    1   21 1
     3    2   19 1
     4    3   10 2
     5    4   21 1
     6    4   25 1
     7    5   25 2
     8    6   11 1
     9    6   12 1
    10    6   13 1
    11    7    8 1
    12    7    9 1
    13    7   10 1
    14    7   27 1
    15    8    9 1
    16    8   28 1
    17    8   29 1
    18    9   30 1
    19    9   31 1
    20   10   11 1
    21   11   14 1
    22   11   32 1
    23   12   15 1
    24   12   33 1
    25   12   34 1
    26   13   16 1
    27   13   35 1
    28   13   36 1
    29   14   19 ar
    30   14   20 ar
    31   15   17 1
    32   15   37 1
    33   15   38 1
    34   16   17 2
    35   16   18 1
    36   18   21 2
    37   18   39 1
    38   19   22 ar
    39   20   23 ar
    40   20   40 1
    41   22   24 ar
    42   22   41 1
    43   23   24 ar
    44   23   42 1
    45   24   43 1
    46   25   26 1
    47   26   44 1
    48   26   45 1
    49   26   46 1
