@<TRIPOS>MOLECULE
DB06821
   31    32     0     0     0
SMALL
USER_CHARGES

@<TRIPOS>ATOM
      1 S1         -1.5837    2.6937   -0.2602 S.o2      1 <0>         0.0746
      2 O1         -2.6406    3.4094    0.4448 O.2       1 <0>        -0.1499
      3 O2         -1.2646    3.0818   -1.6286 O.2       1 <0>        -0.1499
      4 O3          3.9511   -0.6151   -0.5468 O.3       1 <0>        -0.4921
      5 N1         -0.1579    2.7593    0.7049 N.pl3     1 <0>        -0.1836
      6 N2          1.5458    2.1052   -0.7900 N.ar      1 <0>        -0.2180
      7 N3          1.1900    0.9076    1.2708 N.ar      1 <0>        -0.2180
      8 N4         -2.9541   -3.0919   -0.1927 N.pl3     1 <0>        -0.3580
      9 C1         -1.9866    0.9951   -0.2405 C.ar      1 <0>         0.1087
     10 C2         -2.8233    0.4883    0.7539 C.ar      1 <0>        -0.0333
     11 C3         -1.4708    0.1443   -1.2183 C.ar      1 <0>        -0.0333
     12 C4         -2.6287   -1.7197   -0.2077 C.ar      1 <0>         0.0247
     13 C5         -3.1442   -0.8692    0.7704 C.ar      1 <0>        -0.0392
     14 C6         -1.7919   -1.2129   -1.2019 C.ar      1 <0>        -0.0392
     15 C7          0.9239    1.8707    0.3754 C.ar      1 <0>         0.2349
     16 C8          2.9353    0.2193   -0.2372 C.ar      1 <0>         0.1562
     17 C9          2.5550    1.2537   -1.0674 C.ar      1 <0>         0.0743
     18 C10         2.2101    0.0929    0.9301 C.ar      1 <0>         0.0743
     19 C11         4.2600   -1.6542    0.3883 C.3       1 <0>         0.0789
     20 H1         -3.2303    1.1302    1.5299 H         1 <0>         0.0638
     21 H2         -0.8168    0.5163   -2.0018 H         1 <0>         0.0638
     22 H3         -0.3223    2.8301    1.7175 H         1 <0>         0.1767
     23 H4         -3.7959   -1.2525    1.5514 H         1 <0>         0.0636
     24 H5         -1.3832   -1.8655   -1.9693 H         1 <0>         0.0636
     25 H6          3.0633    1.4354   -2.0088 H         1 <0>         0.0869
     26 H7          2.3956   -0.6720    1.6751 H         1 <0>         0.0869
     27 H8         -3.5590   -3.4607    0.5290 H         1 <0>         0.1423
     28 H9         -2.5786   -3.7090   -0.9004 H         1 <0>         0.1423
     29 H10         4.5846   -1.2401    1.3487 H         1 <0>         0.0660
     30 H11         5.0988   -2.2243   -0.0233 H         1 <0>         0.0660
     31 H12         3.4189   -2.3460    0.5047 H         1 <0>         0.0660
@<TRIPOS>BOND
     1    1    2 2
     2    1    3 2
     3    1    5 1
     4    1    9 1
     5    4   16 1
     6    4   19 1
     7    5   15 1
     8    5   22 1
     9    6   15 ar
    10    6   17 ar
    11    7   15 ar
    12    7   18 ar
    13    8   12 1
    14    8   27 1
    15    8   28 1
    16    9   10 ar
    17    9   11 ar
    18   10   13 ar
    19   10   20 1
    20   11   14 ar
    21   11   21 1
    22   12   13 ar
    23   12   14 ar
    24   13   23 1
    25   14   24 1
    26   16   17 ar
    27   16   18 ar
    28   17   25 1
    29   18   26 1
    30   19   29 1
    31   19   30 1
    32   19   31 1
