@<TRIPOS>MOLECULE
DB06211
   51    53     0     0     0
SMALL
USER_CHARGES

@<TRIPOS>ATOM
      1 S1          0.4049   -0.4697    1.5977 S.3       1 <0>        -0.1224
      2 S2          6.9482   -0.1408    0.8110 S.o2      1 <0>         0.0921
      3 O1         -4.7521   -2.6086    0.8261 O.2       1 <0>        -0.2748
      4 O2         -5.6137   -0.3460   -1.8899 O.3       1 <0>        -0.3912
      5 O3         -1.9107   -3.7896   -0.3278 O.3       1 <0>        -0.4762
      6 O4         -0.7342   -3.4447    1.6027 O.2       1 <0>        -0.2437
      7 O5          7.9169    0.6557    1.5404 O.2       1 <0>        -0.1415
      8 O6          6.3517   -1.3142    1.4201 O.2       1 <0>        -0.1415
      9 N1         -2.9978   -1.3361   -0.1044 N.am      1 <0>        -0.2601
     10 N2          2.4665    0.5405   -1.6641 N.3       1 <0>        -0.3109
     11 N3          5.6905    0.8990    0.2515 N.pl3     1 <0>        -0.1786
     12 N4          7.6528   -0.5997   -0.6853 N.pl3     1 <0>        -0.1934
     13 C1         -3.1692    0.1265   -0.2207 C.3       1 <0>         0.0519
     14 C2         -4.6270   -0.1142    0.2839 C.3       1 <0>         0.0811
     15 C3         -1.9673    0.7039    0.5565 C.3       1 <0>         0.0091
     16 C4         -4.2378   -1.6046    0.3874 C.2       1 <0>         0.2276
     17 C5         -1.1458   -0.5367    0.8612 C.2       1 <0>         0.0188
     18 C6         -1.8068   -1.6407    0.4869 C.2       1 <0>         0.1310
     19 C7         -5.8383    0.1571   -0.5720 C.3       1 <0>         0.0653
     20 C8         -2.3478    1.5193    1.7814 C.3       1 <0>        -0.0561
     21 C9          1.3000    0.5105    0.3662 C.3       1 <0>         0.0236
     22 C10         2.7661    0.7025    0.7160 C.3       1 <0>        -0.0229
     23 C11         3.4042    1.0238   -0.6378 C.3       1 <0>         0.0229
     24 C12         1.3865   -0.1788   -0.9833 C.3       1 <0>         0.0084
     25 C13        -6.1342    1.6509   -0.6564 C.3       1 <0>        -0.0382
     26 C14        -1.4129   -3.0330    0.6749 C.2       1 <0>         0.3521
     27 C15         4.7932    0.4174   -0.7894 C.3       1 <0>         0.0339
     28 H1         -3.1262    0.4344   -1.2754 H         1 <0>         0.0519
     29 H2         -4.7969    0.2951    1.2905 H         1 <0>         0.0438
     30 H3         -1.4087    1.3528   -0.1292 H         1 <0>         0.0370
     31 H4         -6.7131   -0.3599   -0.1615 H         1 <0>         0.0598
     32 H5         -1.4677    1.9827    2.2393 H         1 <0>         0.0236
     33 H6         -3.0444    2.3191    1.5085 H         1 <0>         0.0236
     34 H7         -2.8346    0.9010    2.5435 H         1 <0>         0.0236
     35 H8          0.8306    1.4972    0.2685 H         1 <0>         0.0428
     36 H9          2.9104    1.5133    1.4385 H         1 <0>         0.0292
     37 H10         3.1931   -0.2155    1.1408 H         1 <0>         0.0292
     38 H11         3.4755    2.1137   -0.7439 H         1 <0>         0.0474
     39 H12         1.6599   -1.2373   -0.8889 H         1 <0>         0.0435
     40 H13         0.4593   -0.1062   -1.5596 H         1 <0>         0.0435
     41 H14        -5.2968    2.1896   -1.1138 H         1 <0>         0.0255
     42 H15        -7.0123    1.8356   -1.2841 H         1 <0>         0.0255
     43 H16        -6.3146    2.0763    0.3357 H         1 <0>         0.0255
     44 H17         2.9250   -0.0631   -2.3441 H         1 <0>         0.1223
     45 H18         5.2128    0.6844   -1.7664 H         1 <0>         0.0457
     46 H19         4.7194   -0.6761   -0.7485 H         1 <0>         0.0457
     47 H20        -6.4150   -0.1683   -2.4114 H         1 <0>         0.2098
     48 H21         5.9573    1.8851    0.1295 H         1 <0>         0.1491
     49 H22        -1.6648   -4.7346   -0.2330 H         1 <0>         0.2954
     50 H23         8.2626   -1.4279   -0.6534 H         1 <0>         0.1453
     51 H24         8.1030    0.1590   -1.2149 H         1 <0>         0.1453
@<TRIPOS>BOND
     1    1   17 1
     2    1   21 1
     3    2    7 2
     4    2    8 2
     5    2   11 1
     6    2   12 1
     7    3   16 2
     8    4   19 1
     9    4   47 1
    10    5   26 1
    11    5   49 1
    12    6   26 2
    13    9   13 1
    14    9   16 am
    15    9   18 1
    16   10   23 1
    17   10   24 1
    18   10   44 1
    19   11   27 1
    20   11   48 1
    21   12   50 1
    22   12   51 1
    23   13   14 1
    24   13   15 1
    25   13   28 1
    26   14   16 1
    27   14   19 1
    28   14   29 1
    29   15   17 1
    30   15   20 1
    31   15   30 1
    32   17   18 2
    33   18   26 1
    34   19   25 1
    35   19   31 1
    36   20   32 1
    37   20   33 1
    38   20   34 1
    39   21   22 1
    40   21   24 1
    41   21   35 1
    42   22   23 1
    43   22   36 1
    44   22   37 1
    45   23   27 1
    46   23   38 1
    47   24   39 1
    48   24   40 1
    49   25   41 1
    50   25   42 1
    51   25   43 1
    52   27   45 1
    53   27   46 1
