@<TRIPOS>MOLECULE
DB06589
   54    57     0     0     0
SMALL
USER_CHARGES

@<TRIPOS>ATOM
      1 S1         -4.4288    2.3675   -0.8248 S.o2      1 <0>         0.0563
      2 O1         -3.3174    2.3122   -1.7621 O.2       1 <0>        -0.1532
      3 O2         -5.6382    3.0971   -1.1742 O.2       1 <0>        -0.1532
      4 N1          6.3298    0.7224   -0.9275 N.pl3     1 <0>        -0.2705
      5 N2          0.7541   -0.2262    0.2481 N.pl3     1 <0>        -0.2880
      6 N3          5.1806    0.7421   -1.6304 N.2       1 <0>        -0.1712
      7 N4         -3.2832   -2.6170   -0.3299 N.pl3     1 <0>        -0.2835
      8 N5         -1.2910   -1.4119   -0.0394 N.ar      1 <0>        -0.1990
      9 N6         -1.2493   -3.7608   -0.5763 N.ar      1 <0>        -0.2225
     10 N7         -3.8565    2.9386    0.6798 N.pl3     1 <0>        -0.2035
     11 C1          4.8452    0.2033    0.5506 C.2       1 <0>         0.0228
     12 C2          4.2288    0.4217   -0.7361 C.2       1 <0>         0.0947
     13 C3          6.1872    0.4034    0.3913 C.2       1 <0>         0.0436
     14 C4          2.1653   -0.0659    0.2964 C.2       1 <0>         0.0369
     15 C5          2.8373    0.2877   -0.8943 C.2       1 <0>        -0.0126
     16 C6          4.2137   -0.1448    1.7379 C.2       1 <0>        -0.0491
     17 C7          2.8232   -0.2714    1.5498 C.2       1 <0>        -0.0396
     18 C8          7.3265    0.3310    1.3257 C.3       1 <0>        -0.0221
     19 C9          0.0579   -1.4282   -0.0325 C.ar      1 <0>         0.1303
     20 C10        -4.8750    0.7279   -0.4066 C.ar      1 <0>         0.1096
     21 C11         7.5668    1.0301   -1.6089 C.3       1 <0>         0.0305
     22 C12        -6.1592    0.4209    0.0435 C.ar      1 <0>        -0.0240
     23 C13        -4.2215   -1.6255   -0.2081 C.ar      1 <0>         0.0354
     24 C14        -0.0102    1.0261    0.2440 C.3       1 <0>         0.0071
     25 C15        -3.9198   -0.2810   -0.5309 C.ar      1 <0>        -0.0138
     26 C16        -6.4878   -0.8948    0.3699 C.ar      1 <0>        -0.0552
     27 C17        -5.5327   -1.9035    0.2458 C.ar      1 <0>        -0.0401
     28 C18        -1.8715   -2.5954   -0.3144 C.ar      1 <0>         0.2212
     29 C19         0.8131   -2.5550   -0.2840 C.ar      1 <0>        -0.0031
     30 C20        -7.2054    1.4772    0.1875 C.3       1 <0>        -0.0379
     31 C21         0.0986   -3.7044   -0.5527 C.ar      1 <0>         0.0345
     32 H1          2.3311    0.4407   -1.8390 H         1 <0>         0.0658
     33 H2          4.6896   -0.3052    2.6948 H         1 <0>         0.0625
     34 H3          2.2195   -0.5421    2.4171 H         1 <0>         0.0636
     35 H4          8.0216   -0.4603    1.0265 H         1 <0>         0.0293
     36 H5          7.8731    1.2796    1.3475 H         1 <0>         0.0293
     37 H6          7.0056    0.1168    2.3493 H         1 <0>         0.0293
     38 H7          8.2527    0.1892   -1.4813 H         1 <0>         0.0473
     39 H8          7.3700    1.1856   -2.6731 H         1 <0>         0.0473
     40 H9          7.9828    1.9413   -1.1724 H         1 <0>         0.0473
     41 H10        -0.3386    1.2706   -0.7724 H         1 <0>         0.0432
     42 H11         0.5839    1.8685    0.6188 H         1 <0>         0.0432
     43 H12        -0.8910    0.9536    0.8924 H         1 <0>         0.0432
     44 H13        -2.9442   -0.0190   -0.9258 H         1 <0>         0.0656
     45 H14        -7.4837   -1.1525    0.7208 H         1 <0>         0.0621
     46 H15        -5.8083   -2.9238    0.5056 H         1 <0>         0.0636
     47 H16        -3.6516   -3.5611   -0.3909 H         1 <0>         0.1550
     48 H17         1.8945   -2.5880   -0.2830 H         1 <0>         0.0667
     49 H18        -6.8546    2.3262    0.7819 H         1 <0>         0.0278
     50 H19        -7.5898    1.7916   -0.7873 H         1 <0>         0.0278
     51 H20        -8.0706    1.0865    0.7382 H         1 <0>         0.0278
     52 H21         0.6050   -4.6404   -0.7628 H         1 <0>         0.0832
     53 H22        -2.8454    3.0910    0.7789 H         1 <0>         0.1442
     54 H23        -4.4321    3.6277    1.1790 H         1 <0>         0.1442
@<TRIPOS>BOND
     1    1    2 2
     2    1    3 2
     3    1   10 1
     4    1   20 1
     5    4    6 1
     6    4   13 2
     7    4   21 1
     8    5   14 1
     9    5   19 1
    10    5   24 1
    11    6   12 2
    12    7   23 1
    13    7   28 1
    14    7   47 1
    15    8   19 ar
    16    8   28 ar
    17    9   28 ar
    18    9   31 ar
    19   10   53 1
    20   10   54 1
    21   11   12 1
    22   11   13 1
    23   11   16 2
    24   12   15 2
    25   13   18 1
    26   14   15 1
    27   14   17 2
    28   15   32 1
    29   16   17 1
    30   16   33 1
    31   17   34 1
    32   18   35 1
    33   18   36 1
    34   18   37 1
    35   19   29 ar
    36   20   22 ar
    37   20   25 ar
    38   21   38 1
    39   21   39 1
    40   21   40 1
    41   22   26 ar
    42   22   30 1
    43   23   25 ar
    44   23   27 ar
    45   24   41 1
    46   24   42 1
    47   24   43 1
    48   25   44 1
    49   26   27 ar
    50   26   45 1
    51   27   46 1
    52   29   31 ar
    53   29   48 1
    54   30   49 1
    55   30   50 1
    56   30   51 1
    57   31   52 1
