@<TRIPOS>MOLECULE
DB06218
   36    36     0     0     0
SMALL
USER_CHARGES

@<TRIPOS>ATOM
      1 O1         -1.2447   -1.8939    0.2449 O.3       1 <0>        -0.3807
      2 O2         -0.4674    0.8590    1.5310 O.2       1 <0>        -0.2737
      3 O3         -4.3302    0.8342   -1.5550 O.2       1 <0>        -0.2761
      4 N1          0.4626    1.5227   -0.4890 N.am      1 <0>        -0.3096
      5 N2         -2.8763    0.5021    0.2334 N.am      1 <0>        -0.3023
      6 C1         -1.6582    0.3634   -0.5221 C.3       1 <0>         0.1228
      7 C2         -1.3986   -1.0868   -0.9171 C.3       1 <0>         0.0742
      8 C3         -0.5158    0.9420    0.3054 C.2       1 <0>         0.2359
      9 C4          1.6683    2.1041    0.0541 C.3       1 <0>         0.0369
     10 C5          2.7794    1.0997    0.1569 C.ar      1 <0>        -0.0303
     11 C6         -4.1142    0.7268   -0.3507 C.2       1 <0>         0.2106
     12 C7          2.9251    0.3517    1.3194 C.ar      1 <0>        -0.0571
     13 C8          3.6519    0.9277   -0.9115 C.ar      1 <0>        -0.0571
     14 C9          3.9578   -0.5812    1.4150 C.ar      1 <0>        -0.0615
     15 C10         4.6845   -0.0052   -0.8160 C.ar      1 <0>        -0.0615
     16 C11        -5.2223    0.8063    0.6651 C.3       1 <0>         0.0122
     17 C12         4.8374   -0.7596    0.3474 C.ar      1 <0>        -0.0617
     18 C13        -1.0364   -3.2578   -0.0934 C.3       1 <0>         0.0365
     19 H1         -1.7679    0.9570   -1.4384 H         1 <0>         0.0618
     20 H2         -2.2362   -1.4674   -1.5142 H         1 <0>         0.0583
     21 H3         -0.4835   -1.1503   -1.5181 H         1 <0>         0.0583
     22 H4          1.4538    2.5390    1.0377 H         1 <0>         0.0512
     23 H5          1.9577    2.9331   -0.6017 H         1 <0>         0.0512
     24 H6         -2.8254    0.3983    1.2432 H         1 <0>         0.1495
     25 H7          0.3558    1.5162   -1.4992 H         1 <0>         0.1491
     26 H8          2.2493    0.4831    2.1596 H         1 <0>         0.0621
     27 H9          3.5410    1.5086   -1.8229 H         1 <0>         0.0621
     28 H10         4.0773   -1.1682    2.3210 H         1 <0>         0.0618
     29 H11         5.3692   -0.1446   -1.6474 H         1 <0>         0.0618
     30 H12        -6.1223    1.2142    0.1968 H         1 <0>         0.0322
     31 H13        -5.4369   -0.1950    1.0481 H         1 <0>         0.0322
     32 H14        -4.9331    1.4593    1.4936 H         1 <0>         0.0322
     33 H15         5.6414   -1.4860    0.4218 H         1 <0>         0.0618
     34 H16        -1.8974   -3.6537   -0.6406 H         1 <0>         0.0524
     35 H17        -0.1257   -3.3708   -0.6894 H         1 <0>         0.0524
     36 H18        -0.9201   -3.8279    0.8322 H         1 <0>         0.0524
@<TRIPOS>BOND
     1    1    7 1
     2    1   18 1
     3    2    8 2
     4    3   11 2
     5    4    8 am
     6    4    9 1
     7    4   25 1
     8    5    6 1
     9    5   11 am
    10    5   24 1
    11    6    7 1
    12    6    8 1
    13    6   19 1
    14    7   20 1
    15    7   21 1
    16    9   10 1
    17    9   22 1
    18    9   23 1
    19   10   12 ar
    20   10   13 ar
    21   11   16 1
    22   12   14 ar
    23   12   26 1
    24   13   15 ar
    25   13   27 1
    26   14   17 ar
    27   14   28 1
    28   15   17 ar
    29   15   29 1
    30   16   30 1
    31   16   31 1
    32   16   32 1
    33   17   33 1
    34   18   34 1
    35   18   35 1
    36   18   36 1
