@<TRIPOS>MOLECULE
DB06704
   22    22     0     0     0
SMALL
USER_CHARGES

@<TRIPOS>ATOM
      1 I1         -4.0961    2.8390   -0.2130 I         1 <0>        -0.0438
      2 N1          1.3876    0.0912   -0.5386 N.2       1 <0>        -0.1089
      3 N2          3.5314    0.1802   -1.4055 N.pl3     1 <0>        -0.2892
      4 N3          3.3397   -0.0376    0.8553 N.pl3     1 <0>        -0.2892
      5 C1         -0.9135   -0.0674    0.3098 C.ar      1 <0>        -0.0095
      6 C2          0.5376   -0.0256    0.6527 C.3       1 <0>         0.1297
      7 C3         -1.6465    1.1166    0.2281 C.ar      1 <0>        -0.0423
      8 C4         -1.5372   -1.2918    0.0701 C.ar      1 <0>        -0.0554
      9 C5         -3.0031    1.0761   -0.0934 C.ar      1 <0>         0.0137
     10 C6         -2.8937   -1.3324   -0.2515 C.ar      1 <0>        -0.0604
     11 C7         -3.6268   -0.1484   -0.3333 C.ar      1 <0>        -0.0486
     12 C8          2.6670    0.0756   -0.3412 C.2       1 <0>         0.3768
     13 H1          0.7205    0.8205    1.3287 H         1 <0>         0.0744
     14 H2          0.7911   -0.9350    1.2142 H         1 <0>         0.0744
     15 H3         -1.1521    2.0674    0.4145 H         1 <0>         0.0632
     16 H4         -0.9769   -2.2213    0.1282 H         1 <0>         0.0621
     17 H5         -3.3791   -2.2857   -0.4389 H         1 <0>         0.0618
     18 H6         -4.6828   -0.2028   -0.5852 H         1 <0>         0.0628
     19 H7          3.1850    0.2700   -2.3546 H         1 <0>         0.2546
     20 H8          4.5371    0.1695   -1.2753 H         1 <0>         0.2546
     21 H9          4.3537   -0.0385    0.8860 H         1 <0>         0.2546
     22 H10         2.8571   -0.1196    1.7429 H         1 <0>         0.2546
@<TRIPOS>BOND
     1    1    9 1
     2    2    6 1
     3    2   12 2
     4    3   12 1
     5    3   19 1
     6    3   20 1
     7    4   12 1
     8    4   21 1
     9    4   22 1
    10    5    6 1
    11    5    7 ar
    12    5    8 ar
    13    6   13 1
    14    6   14 1
    15    7    9 ar
    16    7   15 1
    17    8   10 ar
    18    8   16 1
    19    9   11 ar
    20   10   11 ar
    21   10   17 1
    22   11   18 1
