@<TRIPOS>MOLECULE
DB06795
   22    22     0     0     0
SMALL
USER_CHARGES

@<TRIPOS>ATOM
      1 S1         -2.9499    0.0004   -0.6991 S.o2      1 <0>         0.0559
      2 O1         -3.2729    1.2606   -1.3535 O.2       1 <0>        -0.1533
      3 O2         -3.2769   -1.2589   -1.3533 O.2       1 <0>        -0.1533
      4 N1         -3.6369   -0.0000    0.8654 N.pl3     1 <0>        -0.2035
      5 N2          3.7703    0.0006   -0.5733 N.3       1 <0>        -0.3261
      6 C1         -1.2469   -0.0001   -0.3147 C.ar      1 <0>         0.1050
      7 C2          1.4746   -0.0004    0.2986 C.ar      1 <0>        -0.0337
      8 C3         -0.5665   -1.2081   -0.1617 C.ar      1 <0>        -0.0351
      9 C4         -0.5665    1.2077   -0.1612 C.ar      1 <0>        -0.0351
     10 C5          0.7942   -1.2084    0.1451 C.ar      1 <0>        -0.0555
     11 C6          0.7942    1.2076    0.1455 C.ar      1 <0>        -0.0555
     12 C7          2.9297   -0.0004    0.6253 C.3       1 <0>         0.0185
     13 H1         -1.0778   -2.1604   -0.2710 H         1 <0>         0.0637
     14 H2         -1.0776    2.1603   -0.2699 H         1 <0>         0.0637
     15 H3          1.3129   -2.1563    0.2617 H         1 <0>         0.0621
     16 H4          1.3131    2.1555    0.2625 H         1 <0>         0.0621
     17 H5          3.1816    0.8730    1.2385 H         1 <0>         0.0471
     18 H6          3.1819   -0.8744    1.2374 H         1 <0>         0.0471
     19 H7         -4.0982    0.8609    1.1837 H         1 <0>         0.1442
     20 H8         -4.0987   -0.8609    1.1831 H         1 <0>         0.1442
     21 H9          3.5580    0.8179   -1.1440 H         1 <0>         0.1185
     22 H10         3.5583   -0.8162   -1.1451 H         1 <0>         0.1185
@<TRIPOS>BOND
     1    1    2 2
     2    1    3 2
     3    1    4 1
     4    1    6 1
     5    4   19 1
     6    4   20 1
     7    5   12 1
     8    5   21 1
     9    5   22 1
    10    6    8 ar
    11    6    9 ar
    12    7   10 ar
    13    7   11 ar
    14    7   12 1
    15    8   10 ar
    16    8   13 1
    17    9   11 ar
    18    9   14 1
    19   10   15 1
    20   11   16 1
    21   12   17 1
    22   12   18 1
