@<TRIPOS>MOLECULE
DB06824
   28    27     0     0     0
SMALL
USER_CHARGES

@<TRIPOS>ATOM
      1 N1         -1.8110   -0.3709   -0.1631 N.3       1 <0>        -0.3136
      2 N2          1.8199    0.4154    0.0479 N.3       1 <0>        -0.3136
      3 N3         -5.4506    0.3316   -0.0254 N.3       1 <0>        -0.3288
      4 N4          5.4485   -0.3364   -0.0891 N.3       1 <0>        -0.3288
      5 C1         -0.6274    0.4556    0.0283 C.3       1 <0>         0.0085
      6 C2          0.6238   -0.4017   -0.1137 C.3       1 <0>         0.0085
      7 C3         -3.0269    0.4165   -0.0022 C.3       1 <0>         0.0083
      8 C4          3.0240   -0.3855   -0.1238 C.3       1 <0>         0.0083
      9 C5         -4.2566   -0.4571   -0.2153 C.3       1 <0>         0.0056
     10 C6          4.2657    0.4783    0.0571 C.3       1 <0>         0.0056
     11 H1         -0.6098    1.2586   -0.7191 H         1 <0>         0.0436
     12 H2         -0.6427    0.9205    1.0223 H         1 <0>         0.0436
     13 H3          0.6120   -1.1953    0.6441 H         1 <0>         0.0436
     14 H4          0.6272   -0.8815   -1.1010 H         1 <0>         0.0436
     15 H5         -1.8085   -1.1402    0.5062 H         1 <0>         0.1220
     16 H6          1.8130    1.1764   -0.6307 H         1 <0>         0.1220
     17 H7         -3.0365    1.2401   -0.7274 H         1 <0>         0.0436
     18 H8         -3.0559    0.8559    1.0033 H         1 <0>         0.0436
     19 H9          3.0358   -0.8409   -1.1225 H         1 <0>         0.0436
     20 H10         3.0342   -1.1980    0.6140 H         1 <0>         0.0436
     21 H11        -4.2583   -1.2969    0.4893 H         1 <0>         0.0434
     22 H12        -4.2543   -0.8754   -1.2281 H         1 <0>         0.0434
     23 H13         4.2645    0.9479    1.0476 H         1 <0>         0.0434
     24 H14         4.2841    1.2803   -0.6893 H         1 <0>         0.0434
     25 H15        -5.4805    0.6989    0.9247 H         1 <0>         0.1183
     26 H16        -6.2734   -0.2607   -0.1277 H         1 <0>         0.1183
     27 H17         5.4607   -1.0670    0.6213 H         1 <0>         0.1183
     28 H18         6.2789    0.2317    0.0723 H         1 <0>         0.1183
@<TRIPOS>BOND
     1    1    5 1
     2    1    7 1
     3    1   15 1
     4    2    6 1
     5    2    8 1
     6    2   16 1
     7    3    9 1
     8    3   25 1
     9    3   26 1
    10    4   10 1
    11    4   27 1
    12    4   28 1
    13    5    6 1
    14    5   11 1
    15    5   12 1
    16    6   13 1
    17    6   14 1
    18    7    9 1
    19    7   17 1
    20    7   18 1
    21    8   10 1
    22    8   19 1
    23    8   20 1
    24    9   21 1
    25    9   22 1
    26   10   23 1
    27   10   24 1
