@<TRIPOS>MOLECULE
DB06751
   60    62     0     0     0
SMALL
USER_CHARGES

@<TRIPOS>ATOM
      1 O1         -5.9770   -0.2489   -0.1265 O.3       1 <0>        -0.4886
      2 O2         -4.3119    1.6507    1.0222 O.3       1 <0>        -0.4886
      3 O3          4.8966    1.0582   -1.2009 O.3       1 <0>        -0.4886
      4 O4          6.1042   -0.9046    0.3518 O.3       1 <0>        -0.4886
      5 N1          0.0764   -1.8045   -1.3763 N.pl3     1 <0>        -0.3430
      6 C1         -2.1066   -2.8250   -1.6626 C.3       1 <0>        -0.0114
      7 C2         -2.6828   -1.6267   -0.9444 C.ar      1 <0>        -0.0333
      8 C3         -1.8212   -0.6893   -0.3259 C.ar      1 <0>         0.0027
      9 C4         -0.7893   -2.4547   -2.3350 C.3       1 <0>         0.0131
     10 C5         -0.3460   -0.9044   -0.4140 C.2       1 <0>         0.0353
     11 C6         -4.0746   -1.4746   -0.8609 C.ar      1 <0>        -0.0124
     12 C7         -2.3992    0.4155    0.3214 C.ar      1 <0>        -0.0071
     13 C8         -4.6235   -0.3796   -0.1997 C.ar      1 <0>         0.1622
     14 C9         -3.7875    0.5664    0.3844 C.ar      1 <0>         0.1625
     15 C10         0.5171   -0.2955    0.4181 C.2       1 <0>        -0.0330
     16 C11         1.9771   -0.4524    0.3980 C.ar      1 <0>        -0.0196
     17 C12         2.7576    0.3847   -0.3990 C.ar      1 <0>        -0.0091
     18 C13         2.5832   -1.4387    1.1764 C.ar      1 <0>        -0.0508
     19 C14         4.1446    0.2359   -0.4177 C.ar      1 <0>         0.1624
     20 C15        -6.6958   -1.2967    0.5217 C.3       1 <0>         0.0870
     21 C16        -3.9564    2.9349    0.5145 C.3       1 <0>         0.0870
     22 C17         4.7508   -0.7503    0.3604 C.ar      1 <0>         0.1619
     23 C18         3.9700   -1.5877    1.1574 C.ar      1 <0>        -0.0157
     24 C19        -7.9341   -0.7168    1.1712 C.3       1 <0>        -0.0307
     25 C20        -5.0983    3.8971    0.7638 C.3       1 <0>        -0.0307
     26 C21         4.3923    2.3718   -1.4337 C.3       1 <0>         0.0870
     27 C22         6.7082   -1.3954    1.5470 C.3       1 <0>         0.0870
     28 C23         5.5565    3.3220   -1.6160 C.3       1 <0>        -0.0307
     29 C24         8.1151   -0.8461    1.6500 C.3       1 <0>        -0.0307
     30 H1         -2.8040   -3.1971   -2.4220 H         1 <0>         0.0328
     31 H2         -1.9508   -3.6252   -0.9284 H         1 <0>         0.0328
     32 H3         -0.9667   -1.7741   -3.1764 H         1 <0>         0.0464
     33 H4         -0.3018   -3.3510   -2.7325 H         1 <0>         0.0464
     34 H5          1.0741   -1.9691   -1.4609 H         1 <0>         0.1461
     35 H6         -4.7243   -2.2115   -1.3273 H         1 <0>         0.0658
     36 H7         -1.7764    1.1752    0.7859 H         1 <0>         0.0662
     37 H8          0.1805    0.3784    1.2009 H         1 <0>         0.0642
     38 H9          2.2554    1.1236   -1.0184 H         1 <0>         0.0661
     39 H10         1.9868   -2.1024    1.7978 H         1 <0>         0.0625
     40 H11        -6.9823   -2.0452   -0.2249 H         1 <0>         0.0694
     41 H12        -6.0798   -1.7811    1.2897 H         1 <0>         0.0694
     42 H13        -3.7514    2.8907   -0.5624 H         1 <0>         0.0694
     43 H14        -3.0561    3.2846    1.0313 H         1 <0>         0.0694
     44 H15         4.3968   -2.3870    1.7560 H         1 <0>         0.0655
     45 H16        -7.6611    0.0458    1.9082 H         1 <0>         0.0262
     46 H17        -8.5669   -0.2254    0.4248 H         1 <0>         0.0262
     47 H18        -8.5166   -1.4969    1.6692 H         1 <0>         0.0262
     48 H19        -4.8541    4.8976    0.3961 H         1 <0>         0.0262
     49 H20        -5.3242    3.9589    1.8334 H         1 <0>         0.0262
     50 H21        -6.0097    3.5501    0.2658 H         1 <0>         0.0262
     51 H22         3.7738    2.3651   -2.3378 H         1 <0>         0.0694
     52 H23         3.8017    2.7416   -0.5860 H         1 <0>         0.0694
     53 H24         6.1642   -1.0716    2.4433 H         1 <0>         0.0694
     54 H25         6.7407   -2.4900    1.5116 H         1 <0>         0.0694
     55 H26         6.1922    3.3289   -0.7243 H         1 <0>         0.0262
     56 H27         6.1867    3.0031   -2.4530 H         1 <0>         0.0262
     57 H28         5.2054    4.3400   -1.8073 H         1 <0>         0.0262
     58 H29         8.7079   -1.1385    0.7769 H         1 <0>         0.0262
     59 H30         8.1010    0.2487    1.6722 H         1 <0>         0.0262
     60 H31         8.6133   -1.2112    2.5525 H         1 <0>         0.0262
@<TRIPOS>BOND
     1    1   13 1
     2    1   20 1
     3    2   14 1
     4    2   21 1
     5    3   19 1
     6    3   26 1
     7    4   22 1
     8    4   27 1
     9    5    9 1
    10    5   10 1
    11    5   34 1
    12    6    7 1
    13    6    9 1
    14    6   30 1
    15    6   31 1
    16    7    8 ar
    17    7   11 ar
    18    8   10 1
    19    8   12 ar
    20    9   32 1
    21    9   33 1
    22   10   15 2
    23   11   13 ar
    24   11   35 1
    25   12   14 ar
    26   12   36 1
    27   13   14 ar
    28   15   16 1
    29   15   37 1
    30   16   17 ar
    31   16   18 ar
    32   17   19 ar
    33   17   38 1
    34   18   23 ar
    35   18   39 1
    36   19   22 ar
    37   20   24 1
    38   20   40 1
    39   20   41 1
    40   21   25 1
    41   21   42 1
    42   21   43 1
    43   22   23 ar
    44   23   44 1
    45   24   45 1
    46   24   46 1
    47   24   47 1
    48   25   48 1
    49   25   49 1
    50   25   50 1
    51   26   28 1
    52   26   51 1
    53   26   52 1
    54   27   29 1
    55   27   53 1
    56   27   54 1
    57   28   55 1
    58   28   56 1
    59   28   57 1
    60   29   58 1
    61   29   59 1
    62   29   60 1
