@<TRIPOS>MOLECULE
DB06802
   33    34     0     0     0
SMALL
USER_CHARGES

@<TRIPOS>ATOM
      1 O1         -1.7747    1.6072    2.1004 O.2       1 <0>        -0.2866
      2 O2          2.7135   -1.4913   -1.4963 O.2       1 <0>        -0.2757
      3 N1          0.7034   -0.6444    1.5877 N.pl3     1 <0>        -0.3572
      4 N2          4.4963   -2.1518   -0.2047 N.am      1 <0>        -0.3291
      5 C1          2.1252    0.7184    0.1612 C.ar      1 <0>        -0.0173
      6 C2          0.8755    0.4647    0.7264 C.ar      1 <0>         0.0392
      7 C3         -0.1687    1.3089    0.4264 C.ar      1 <0>         0.0431
      8 C4          3.2981   -0.1622    0.4478 C.3       1 <0>         0.0506
      9 C5          2.2975    1.8106   -0.6892 C.ar      1 <0>        -0.0563
     10 C6         -0.0300    2.3949   -0.4098 C.ar      1 <0>        -0.0491
     11 C7         -1.5215    1.0672    1.0132 C.2       1 <0>         0.1949
     12 C8          1.2200    2.6489   -0.9747 C.ar      1 <0>        -0.0607
     13 C9         -2.5190    0.2374    0.3568 C.ar      1 <0>         0.0223
     14 C10         3.4454   -1.3187   -0.5256 C.2       1 <0>         0.2149
     15 C11        -2.2281   -0.3677   -0.8660 C.ar      1 <0>        -0.0509
     16 C12        -3.7668    0.0460    0.9502 C.ar      1 <0>        -0.0509
     17 C13        -3.1850   -1.1639   -1.4951 C.ar      1 <0>        -0.0611
     18 C14        -4.7236   -0.7506    0.3210 C.ar      1 <0>        -0.0611
     19 C15        -4.4327   -1.3555   -0.9017 C.ar      1 <0>        -0.0617
     20 H1          4.2197    0.4333    0.3815 H         1 <0>         0.0407
     21 H2          3.2893   -0.5396    1.4763 H         1 <0>         0.0407
     22 H3          3.2644    2.0199   -1.1393 H         1 <0>         0.0621
     23 H4         -0.8652    3.0512   -0.6358 H         1 <0>         0.0625
     24 H5          1.3536    3.4988   -1.6375 H         1 <0>         0.0618
     25 H6         -0.2011   -0.8263    2.0016 H         1 <0>         0.1423
     26 H7          1.4333   -1.3306    1.7131 H         1 <0>         0.1423
     27 H8         -1.2702   -0.2463   -1.3626 H         1 <0>         0.0625
     28 H9         -4.0186    0.5057    1.9022 H         1 <0>         0.0625
     29 H10        -2.9589   -1.6354   -2.4471 H         1 <0>         0.0618
     30 H11        -5.6951   -0.8999    0.7829 H         1 <0>         0.0618
     31 H12        -5.1776   -1.9757   -1.3916 H         1 <0>         0.0618
     32 H13         5.0915   -1.9886    0.6010 H         1 <0>         0.1449
     33 H14         4.7099   -2.9647   -0.7728 H         1 <0>         0.1449
@<TRIPOS>BOND
     1    1   11 2
     2    2   14 2
     3    3    6 1
     4    3   25 1
     5    3   26 1
     6    4   14 am
     7    4   32 1
     8    4   33 1
     9    5    6 ar
    10    5    8 1
    11    5    9 ar
    12    6    7 ar
    13    7   10 ar
    14    7   11 1
    15    8   14 1
    16    8   20 1
    17    8   21 1
    18    9   12 ar
    19    9   22 1
    20   10   12 ar
    21   10   23 1
    22   11   13 1
    23   12   24 1
    24   13   15 ar
    25   13   16 ar
    26   15   17 ar
    27   15   27 1
    28   16   18 ar
    29   16   28 1
    30   17   19 ar
    31   17   29 1
    32   18   19 ar
    33   18   30 1
    34   19   31 1
