@<TRIPOS>MOLECULE
DB06826
   65    65     0     0     0
SMALL
USER_CHARGES

@<TRIPOS>ATOM
      1 O1          1.6344   -3.7903   -0.9338 O.3       1 <0>        -0.3914
      2 O2          4.8885   -3.2636    0.7830 O.3       1 <0>        -0.3914
      3 O3         -1.0862    0.7349    0.1834 O.2       1 <0>        -0.2974
      4 O4          2.0045    4.5061   -1.0016 O.3       1 <0>        -0.4806
      5 O5          2.5850    2.3578   -1.4445 O.2       1 <0>        -0.2510
      6 C1          2.4003   -1.7898    0.1889 C.3       1 <0>        -0.0091
      7 C2          3.7945   -1.1473    0.2110 C.3       1 <0>        -0.0063
      8 C3          2.4169   -2.6182   -1.1035 C.3       1 <0>         0.0608
      9 C4          4.6889   -2.3047   -0.2500 C.3       1 <0>         0.0610
     10 C5          3.8884   -2.9686   -1.3722 C.3       1 <0>        -0.0002
     11 C6          1.2586   -0.7809    0.2138 C.3       1 <0>        -0.0408
     12 C7          4.1696   -0.5628    1.5658 C.3       1 <0>        -0.0292
     13 C8         -0.1006   -1.4722    0.1473 C.3       1 <0>         0.0062
     14 C9          5.5381    0.0490    1.6861 C.2       1 <0>        -0.0876
     15 C10        -1.2549   -0.4834    0.1384 C.2       1 <0>         0.1334
     16 C11        -2.6518   -1.0700    0.1022 C.3       1 <0>         0.0058
     17 C12         5.8886    1.3130    1.4037 C.2       1 <0>        -0.0879
     18 C13        -3.7033    0.0329    0.1340 C.3       1 <0>        -0.0464
     19 C14         4.9263    2.3508    0.9043 C.3       1 <0>        -0.0343
     20 C15        -5.1177   -0.5476    0.1393 C.3       1 <0>        -0.0527
     21 C16         5.2937    2.9202   -0.4730 C.3       1 <0>        -0.0395
     22 C17        -6.1735    0.5595    0.1375 C.3       1 <0>        -0.0531
     23 C18        -7.5882   -0.0213    0.1092 C.3       1 <0>        -0.0533
     24 C19         4.3268    3.9948   -0.9796 C.3       1 <0>         0.0451
     25 C20        -8.6425    1.0849    0.0741 C.3       1 <0>        -0.0559
     26 C21       -10.0510    0.5122    0.0798 C.3       1 <0>        -0.0653
     27 C22         2.9069    3.5025   -1.1575 C.2       1 <0>         0.3047
     28 H1          2.2843   -2.4600    1.0529 H         1 <0>         0.0329
     29 H2          3.8351   -0.3528   -0.5480 H         1 <0>         0.0332
     30 H3          2.0104   -2.0568   -1.9531 H         1 <0>         0.0597
     31 H4          5.6698   -1.9601   -0.5927 H         1 <0>         0.0597
     32 H5          4.0578   -4.0488   -1.4316 H         1 <0>         0.0315
     33 H6          4.1810   -2.5224   -2.3303 H         1 <0>         0.0315
     34 H7          1.3073   -0.1786    1.1284 H         1 <0>         0.0273
     35 H8          1.3565   -0.0785   -0.6234 H         1 <0>         0.0273
     36 H9          3.4190    0.1737    1.8734 H         1 <0>         0.0311
     37 H10         4.0976   -1.3416    2.3374 H         1 <0>         0.0311
     38 H11        -0.1990   -2.0588   -0.7709 H         1 <0>         0.0342
     39 H12        -0.2285   -2.1363    1.0089 H         1 <0>         0.0342
     40 H13         1.6997   -4.3058   -1.7557 H         1 <0>         0.2098
     41 H14         5.4464   -3.9726    0.4200 H         1 <0>         0.2098
     42 H15         6.3239   -0.6220    2.0282 H         1 <0>         0.0569
     43 H16        -2.7675   -1.7290    0.9694 H         1 <0>         0.0342
     44 H17        -2.7512   -1.6651   -0.8117 H         1 <0>         0.0342
     45 H18         6.9242    1.6134    1.5393 H         1 <0>         0.0569
     46 H19        -3.5648    0.6581    1.0252 H         1 <0>         0.0269
     47 H20        -3.5789    0.6892   -0.7365 H         1 <0>         0.0269
     48 H21         4.9207    3.1723    1.6320 H         1 <0>         0.0307
     49 H22         3.9010    1.9747    0.8743 H         1 <0>         0.0307
     50 H23        -5.2523   -1.1834    1.0227 H         1 <0>         0.0265
     51 H24        -5.2544   -1.1856   -0.7424 H         1 <0>         0.0265
     52 H25         5.3311    2.0990   -1.2005 H         1 <0>         0.0273
     53 H26         6.3024    3.3501   -0.4321 H         1 <0>         0.0273
     54 H27        -6.0258    1.2054   -0.7365 H         1 <0>         0.0265
     55 H28        -6.0503    1.1874    1.0282 H         1 <0>         0.0265
     56 H29        -7.7431   -0.6506    0.9941 H         1 <0>         0.0265
     57 H30        -7.7050   -0.6661   -0.7702 H         1 <0>         0.0265
     58 H31         4.6692    4.3787   -1.9466 H         1 <0>         0.0378
     59 H32         4.3218    4.8271   -0.2660 H         1 <0>         0.0378
     60 H33        -8.5071    1.7003   -0.8229 H         1 <0>         0.0263
     61 H34        -8.5201    1.7439    0.9415 H         1 <0>         0.0263
     62 H35       -10.2174   -0.1287   -0.7920 H         1 <0>         0.0230
     63 H36       -10.7887    1.3203    0.0533 H         1 <0>         0.0230
     64 H37       -10.2295   -0.0813    0.9821 H         1 <0>         0.0230
     65 H38         1.0842    4.1934   -1.1344 H         1 <0>         0.2951
@<TRIPOS>BOND
     1    1    8 1
     2    1   40 1
     3    2    9 1
     4    2   41 1
     5    3   15 2
     6    4   27 1
     7    4   65 1
     8    5   27 2
     9    6    7 1
    10    6    8 1
    11    6   11 1
    12    6   28 1
    13    7    9 1
    14    7   12 1
    15    7   29 1
    16    8   10 1
    17    8   30 1
    18    9   10 1
    19    9   31 1
    20   10   32 1
    21   10   33 1
    22   11   13 1
    23   11   34 1
    24   11   35 1
    25   12   14 1
    26   12   36 1
    27   12   37 1
    28   13   15 1
    29   13   38 1
    30   13   39 1
    31   14   17 2
    32   14   42 1
    33   15   16 1
    34   16   18 1
    35   16   43 1
    36   16   44 1
    37   17   19 1
    38   17   45 1
    39   18   20 1
    40   18   46 1
    41   18   47 1
    42   19   21 1
    43   19   48 1
    44   19   49 1
    45   20   22 1
    46   20   50 1
    47   20   51 1
    48   21   24 1
    49   21   52 1
    50   21   53 1
    51   22   23 1
    52   22   54 1
    53   22   55 1
    54   23   25 1
    55   23   56 1
    56   23   57 1
    57   24   27 1
    58   24   58 1
    59   24   59 1
    60   25   26 1
    61   25   60 1
    62   25   61 1
    63   26   62 1
    64   26   63 1
    65   26   64 1
