@<TRIPOS>MOLECULE
DB06608
   61    63     0     0     0
SMALL
USER_CHARGES

@<TRIPOS>ATOM
      1 F1          5.0686   -1.4938    4.1289 F         1 <0>        -0.1659
      2 F2          4.1439    0.4595    3.9465 F         1 <0>        -0.1659
      3 F3          2.9649   -1.3350    3.6020 F         1 <0>        -0.1659
      4 O1          3.2543    0.6669   -1.2253 O.3       1 <0>        -0.4517
      5 O2          2.2476   -1.8367   -1.5230 O.3       1 <0>        -0.4913
      6 O3         -1.6416    4.5907   -0.1118 O.3       1 <0>        -0.4796
      7 N1         -2.1797   -0.2315   -0.8229 N.pl3     1 <0>        -0.3395
      8 N2         -1.2281    2.3431   -0.5100 N.ar      1 <0>        -0.2109
      9 N3         -5.5216   -0.8951    3.1310 N.3       1 <0>        -0.3300
     10 C1         -2.7430   -1.5567   -0.9772 C.3       1 <0>         0.0179
     11 C2         -4.1411   -1.6164   -0.3471 C.3       1 <0>        -0.0337
     12 C3         -4.1339   -1.2335    1.1381 C.3       1 <0>        -0.0390
     13 C4         -0.8265    0.0399   -0.9164 C.ar      1 <0>         0.0575
     14 C5         -2.8005   -1.8909   -2.4642 C.3       1 <0>        -0.0467
     15 C6         -0.3615    1.3423   -0.7557 C.ar      1 <0>         0.0996
     16 C7          1.0269    1.5685   -0.8592 C.ar      1 <0>         0.0512
     17 C8         -5.5492   -1.2414    1.7147 C.3       1 <0>        -0.0068
     18 C9          0.0440   -1.0222   -1.1728 C.ar      1 <0>         0.0067
     19 C10         1.9027    0.5003   -1.1171 C.ar      1 <0>         0.1793
     20 C11         1.4955    2.8793   -0.6982 C.ar      1 <0>        -0.0326
     21 C12         1.4103   -0.7921   -1.2735 C.ar      1 <0>         0.1646
     22 C13         0.6049    3.9127   -0.4447 C.ar      1 <0>         0.0036
     23 C14        -0.7352    3.5938   -0.3608 C.ar      1 <0>         0.2153
     24 C15         2.9387    3.2688   -0.7799 C.3       1 <0>        -0.0388
     25 C16         4.0560   -0.0227   -0.3349 C.ar      1 <0>         0.1292
     26 C17         3.7286   -0.0515    1.0207 C.ar      1 <0>        -0.0077
     27 C18         1.6523   -3.1248   -1.6684 C.3       1 <0>         0.0790
     28 C19         5.1928   -0.6893   -0.7920 C.ar      1 <0>        -0.0193
     29 C20         4.5381   -0.7465    1.9191 C.ar      1 <0>         0.0583
     30 C21         6.0023   -1.3846    0.1063 C.ar      1 <0>        -0.0578
     31 C22         5.6749   -1.4132    1.4618 C.ar      1 <0>        -0.0499
     32 C23        -3.0095    4.2076   -0.0352 C.3       1 <0>         0.0804
     33 C24         4.1887   -0.7772    3.3684 C.3       1 <0>         0.4175
     34 H1         -2.1529   -2.3103   -0.4424 H         1 <0>         0.0495
     35 H2         -4.5520   -2.6273   -0.4618 H         1 <0>         0.0283
     36 H3         -4.8155   -0.9368   -0.8846 H         1 <0>         0.0283
     37 H4         -2.8112    0.5590   -0.7485 H         1 <0>         0.1464
     38 H5         -3.5005   -1.9386    1.6911 H         1 <0>         0.0278
     39 H6         -3.7008   -0.2355    1.2749 H         1 <0>         0.0278
     40 H7         -1.8219   -1.8846   -2.9515 H         1 <0>         0.0247
     41 H8         -3.2323   -2.8865   -2.6147 H         1 <0>         0.0247
     42 H9         -3.4299   -1.1726   -3.0032 H         1 <0>         0.0247
     43 H10        -6.1812   -0.5250    1.1784 H         1 <0>         0.0422
     44 H11        -5.9973   -2.2340    1.5992 H         1 <0>         0.0422
     45 H12        -0.3462   -2.0218   -1.2798 H         1 <0>         0.0674
     46 H13         0.9330    4.9386   -0.3138 H         1 <0>         0.0673
     47 H14         3.0689    4.3540   -0.6845 H         1 <0>         0.0278
     48 H15         3.3670    3.0092   -1.7532 H         1 <0>         0.0278
     49 H16         3.5146    2.8275    0.0380 H         1 <0>         0.0278
     50 H17        -5.1329    0.0397    3.2485 H         1 <0>         0.1182
     51 H18        -6.4754   -0.8547    3.4875 H         1 <0>         0.1182
     52 H19         2.8560    0.4756    1.3982 H         1 <0>         0.0660
     53 H20         2.4656   -3.8314   -1.8658 H         1 <0>         0.0660
     54 H21         0.9826   -3.1677   -2.5343 H         1 <0>         0.0660
     55 H22         1.1686   -3.4547   -0.7425 H         1 <0>         0.0660
     56 H23         5.4519   -0.6704   -1.8470 H         1 <0>         0.0654
     57 H24         6.8871   -1.9037   -0.2501 H         1 <0>         0.0619
     58 H25         6.3178   -1.9601    2.1460 H         1 <0>         0.0623
     59 H26        -3.6000    5.1061    0.1673 H         1 <0>         0.0660
     60 H27        -3.1748    3.5028    0.7867 H         1 <0>         0.0660
     61 H28        -3.3529    3.7853   -0.9856 H         1 <0>         0.0660
@<TRIPOS>BOND
     1    1   33 1
     2    2   33 1
     3    3   33 1
     4    4   19 1
     5    4   25 1
     6    5   21 1
     7    5   27 1
     8    6   23 1
     9    6   32 1
    10    7   10 1
    11    7   13 1
    12    7   37 1
    13    8   15 ar
    14    8   23 ar
    15    9   17 1
    16    9   50 1
    17    9   51 1
    18   10   11 1
    19   10   14 1
    20   10   34 1
    21   11   12 1
    22   11   35 1
    23   11   36 1
    24   12   17 1
    25   12   38 1
    26   12   39 1
    27   13   15 ar
    28   13   18 ar
    29   14   40 1
    30   14   41 1
    31   14   42 1
    32   15   16 ar
    33   16   19 ar
    34   16   20 ar
    35   17   43 1
    36   17   44 1
    37   18   21 ar
    38   18   45 1
    39   19   21 ar
    40   20   22 ar
    41   20   24 1
    42   22   23 ar
    43   22   46 1
    44   24   47 1
    45   24   48 1
    46   24   49 1
    47   25   26 ar
    48   25   28 ar
    49   26   29 ar
    50   26   52 1
    51   27   53 1
    52   27   54 1
    53   27   55 1
    54   28   30 ar
    55   28   56 1
    56   29   31 ar
    57   29   33 1
    58   30   31 ar
    59   30   57 1
    60   31   58 1
    61   32   59 1
    62   32   60 1
    63   32   61 1
