@<TRIPOS>MOLECULE
DB06204
   39    39     0     0     0
SMALL
USER_CHARGES

@<TRIPOS>ATOM
      1 O1         -2.1212    2.9146    2.1641 O.3       1 <0>        -0.5068
      2 N1          3.0000    0.1086   -0.1416 N.3       1 <0>        -0.3081
      3 C1         -0.7298   -1.0261   -0.3688 C.3       1 <0>        -0.0123
      4 C2          0.7620   -1.0176    0.1142 C.3       1 <0>        -0.0243
      5 C3          1.6631   -0.0565   -0.7026 C.3       1 <0>         0.0014
      6 C4         -1.5997   -2.0442    0.4130 C.3       1 <0>        -0.0488
      7 C5         -1.3433    0.3694   -0.3082 C.ar      1 <0>        -0.0405
      8 C6          1.3791   -2.4257    0.1244 C.3       1 <0>        -0.0607
      9 C7         -3.0184   -2.1835   -0.1317 C.3       1 <0>        -0.0647
     10 C8         -1.4458    0.9964    0.9146 C.ar      1 <0>        -0.0167
     11 C9         -1.7742    0.9554   -1.4786 C.ar      1 <0>        -0.0581
     12 C10         2.9225    0.5827    1.2409 C.3       1 <0>        -0.0130
     13 C11         3.7879    1.0366   -0.9540 C.3       1 <0>        -0.0130
     14 C12        -2.0070    2.2722    0.9697 C.ar      1 <0>         0.1171
     15 C13        -2.3354    2.2311   -1.4236 C.ar      1 <0>        -0.0580
     16 C14        -2.4517    2.8896   -0.1993 C.ar      1 <0>        -0.0202
     17 H1          0.7346   -0.6889    1.1585 H         1 <0>         0.0316
     18 H2         -0.7174   -1.3581   -1.4171 H         1 <0>         0.0352
     19 H3          1.7425   -0.4501   -1.7248 H         1 <0>         0.0429
     20 H4          1.1848    0.9267   -0.7848 H         1 <0>         0.0429
     21 H5         -1.1525   -3.0412    0.3467 H         1 <0>         0.0269
     22 H6         -1.6437   -1.7909    1.4786 H         1 <0>         0.0269
     23 H7          0.9077   -3.0643    0.8772 H         1 <0>         0.0233
     24 H8          2.4447   -2.4044    0.3741 H         1 <0>         0.0233
     25 H9          1.2738   -2.9067   -0.8536 H         1 <0>         0.0233
     26 H10        -3.5447   -2.9854    0.3962 H         1 <0>         0.0230
     27 H11        -3.5962   -1.2648    0.0046 H         1 <0>         0.0230
     28 H12        -3.0065   -2.4320   -1.1976 H         1 <0>         0.0230
     29 H13        -1.1048    0.5201    1.8287 H         1 <0>         0.0657
     30 H14        -1.6884    0.4520   -2.4365 H         1 <0>         0.0620
     31 H15         2.5915   -0.2041    1.9252 H         1 <0>         0.0391
     32 H16         2.2711    1.4577    1.3494 H         1 <0>         0.0391
     33 H17         3.9187    0.8655    1.6029 H         1 <0>         0.0391
     34 H18         3.3527    2.0425   -0.9743 H         1 <0>         0.0391
     35 H19         3.8676    0.6737   -1.9848 H         1 <0>         0.0391
     36 H20         4.8115    1.1112   -0.5700 H         1 <0>         0.0391
     37 H21        -2.6817    2.7120   -2.3338 H         1 <0>         0.0619
     38 H22        -2.8897    3.8833   -0.1628 H         1 <0>         0.0654
     39 H23        -1.7638    2.3432    2.8654 H         1 <0>         0.2921
@<TRIPOS>BOND
     1    1   14 1
     2    1   39 1
     3    2    5 1
     4    2   12 1
     5    2   13 1
     6    3    4 1
     7    3    6 1
     8    3    7 1
     9    3   18 1
    10    4    5 1
    11    4    8 1
    12    4   17 1
    13    5   19 1
    14    5   20 1
    15    6    9 1
    16    6   21 1
    17    6   22 1
    18    7   10 ar
    19    7   11 ar
    20    8   23 1
    21    8   24 1
    22    8   25 1
    23    9   26 1
    24    9   27 1
    25    9   28 1
    26   10   14 ar
    27   10   29 1
    28   11   15 ar
    29   11   30 1
    30   12   31 1
    31   12   32 1
    32   12   33 1
    33   13   34 1
    34   13   35 1
    35   13   36 1
    36   14   16 ar
    37   15   16 ar
    38   15   37 1
    39   16   38 1
