@<TRIPOS>MOLECULE
DB06729
   36    38     0     0     0
SMALL
USER_CHARGES

@<TRIPOS>ATOM
      1 S1          0.2720    2.3414   -0.7816 S.o2      1 <0>         0.0735
      2 O1          0.0204    3.7607   -0.6138 O.2       1 <0>        -0.1499
      3 O2          0.8613    1.8551   -2.0143 O.2       1 <0>        -0.1499
      4 N1          2.7981   -0.1128    0.2164 N.pl3     1 <0>        -0.2173
      5 N2          1.1709    1.7902    0.5673 N.pl3     1 <0>        -0.1994
      6 N3          4.1124   -0.3247   -0.0058 N.2       1 <0>        -0.1730
      7 N4         -4.9350   -0.4323   -0.0405 N.pl3     1 <0>        -0.3580
      8 C1          2.4807    1.2161    0.3282 C.cat     1 <0>         0.1413
      9 C2         -1.2782    1.5163   -0.5614 C.ar      1 <0>         0.1087
     10 C3          1.9213   -1.1781    0.3103 C.ar      1 <0>         0.0675
     11 C4          3.6573    1.9067    0.1696 C.2       1 <0>        -0.0006
     12 C5         -2.2726    2.1361    0.1735 C.ar      1 <0>        -0.0333
     13 C6         -1.4631    0.2681   -1.1274 C.ar      1 <0>        -0.0333
     14 C7          4.6277    0.9072   -0.0331 C.2       1 <0>         0.0517
     15 C8         -3.4939    1.4851    0.3482 C.ar      1 <0>        -0.0392
     16 C9         -2.6845   -0.3828   -0.9530 C.ar      1 <0>        -0.0392
     17 C10         0.7841   -1.0769    1.1118 C.ar      1 <0>        -0.0362
     18 C11         2.1748   -2.3543   -0.3954 C.ar      1 <0>        -0.0362
     19 C12        -3.6999    0.2257   -0.2151 C.ar      1 <0>         0.0247
     20 C13        -0.0996   -2.1520    1.2073 C.ar      1 <0>        -0.0598
     21 C14         1.2909   -3.4292   -0.2999 C.ar      1 <0>        -0.0598
     22 C15         0.1537   -3.3281    0.5014 C.ar      1 <0>        -0.0616
     23 H1          1.2005    2.4691    1.3406 H         1 <0>         0.1752
     24 H2          3.7960    2.9778    0.1958 H         1 <0>         0.0668
     25 H3         -2.1294    3.1118    0.6269 H         1 <0>         0.0638
     26 H4         -0.6837   -0.2218   -1.7029 H         1 <0>         0.0638
     27 H5          5.6887    1.0251   -0.1996 H         1 <0>         0.0848
     28 H6         -4.2768    1.9688    0.9267 H         1 <0>         0.0636
     29 H7         -2.8320   -1.3644   -1.3959 H         1 <0>         0.0636
     30 H8          0.5705   -0.2142    1.7333 H         1 <0>         0.0639
     31 H9          3.0463   -2.4609   -1.0365 H         1 <0>         0.0639
     32 H10        -0.9781   -2.0787    1.8418 H         1 <0>         0.0618
     33 H11         1.4868   -4.3444   -0.8510 H         1 <0>         0.0618
     34 H12        -0.5334   -4.1656    0.5774 H         1 <0>         0.0618
     35 H13        -5.0833   -1.3467   -0.4461 H         1 <0>         0.1423
     36 H14        -5.6709    0.0067    0.4966 H         1 <0>         0.1423
@<TRIPOS>BOND
     1    1    2 2
     2    1    3 2
     3    1    5 1
     4    1    9 1
     5    4    6 1
     6    4    8 2
     7    4   10 1
     8    5    8 1
     9    5   23 1
    10    6   14 1
    11    7   19 1
    12    7   35 1
    13    7   36 1
    14    8   11 1
    15    9   12 ar
    16    9   13 ar
    17   10   17 ar
    18   10   18 ar
    19   11   14 2
    20   11   24 1
    21   12   15 ar
    22   12   25 1
    23   13   16 ar
    24   13   26 1
    25   14   27 1
    26   15   19 ar
    27   15   28 1
    28   16   19 ar
    29   16   29 1
    30   17   20 ar
    31   17   30 1
    32   18   21 ar
    33   18   31 1
    34   20   22 ar
    35   20   32 1
    36   21   22 ar
    37   21   33 1
    38   22   34 1
