@<TRIPOS>MOLECULE
DB06827
   91    92     0     0     0
SMALL
USER_CHARGES

@<TRIPOS>ATOM
      1 O1          4.5587   -4.7993    2.3339 O.3       1 <0>        -0.3581
      2 O2          1.2200   -2.8132    0.4431 O.2       1 <0>        -0.2737
      3 O3          2.8253   -0.0959    1.7089 O.2       1 <0>        -0.2688
      4 O4         -0.8209    0.4340   -2.6627 O.2       1 <0>        -0.2737
      5 O5         -2.4458   -3.1156    0.9131 O.2       1 <0>        -0.2757
      6 O6         -4.4730    3.8518   -1.8972 O.3       1 <0>        -0.3927
      7 O7         -2.1087    2.9903    0.6634 O.2       1 <0>        -0.2737
      8 O8          0.6674    1.4293    0.2418 O.2       1 <0>        -0.2733
      9 O9          1.5190    5.4264    0.9057 O.3       1 <0>        -0.3927
     10 O10         7.6182    2.8321    0.7506 O.2       1 <0>        -0.2527
     11 N1          5.4205   -2.2372    0.1947 N.pl3     1 <0>        -0.2334
     12 N2          3.3305   -0.4269   -0.5512 N.am      1 <0>        -0.2962
     13 N3          0.9569   -1.8575   -1.6547 N.am      1 <0>        -0.3114
     14 N4          6.3558   -4.3739    0.7152 N.2       1 <0>        -0.0847
     15 N5         -2.7237   -1.9635   -1.0853 N.am      1 <0>        -0.3026
     16 N6          7.6898   -2.5451    0.1456 N.pl3     1 <0>        -0.2517
     17 N7         -2.5808    0.7908   -1.1962 N.am      1 <0>        -0.3005
     18 N8         -6.9193   -2.8557   -0.5799 N.3       1 <0>        -0.3268
     19 N9          2.6282    2.6869    0.1119 N.am      1 <0>        -0.2788
     20 N10        -0.6844    3.3173   -1.1511 N.am      1 <0>        -0.3005
     21 N11        -7.6220    1.4888    2.4528 N.3       1 <0>        -0.3300
     22 N12         5.3601    3.2841    0.3815 N.am      1 <0>        -0.2743
     23 N13         6.9249    4.9715    0.2912 N.am      1 <0>        -0.3131
     24 C1          4.0348   -2.6374    0.3406 C.3       1 <0>         0.1013
     25 C2          3.1648   -1.8714   -0.6468 C.3       1 <0>         0.1316
     26 C3          3.9561   -4.1484    0.1010 C.3       1 <0>         0.0433
     27 C4          4.9911   -4.8680    0.9741 C.3       1 <0>         0.2145
     28 C5          1.6859   -2.2281   -0.5324 C.2       1 <0>         0.2367
     29 C6          6.4655   -3.1217    0.3790 C.2       1 <0>         0.3651
     30 C7         -1.4211   -1.3460   -1.1332 C.3       1 <0>         0.1149
     31 C8         -0.4286   -2.2518   -1.8586 C.3       1 <0>         0.0386
     32 C9         -5.6176   -2.2430   -0.2981 C.3       1 <0>         0.0131
     33 C10         3.1977    0.3105    0.6137 C.2       1 <0>         0.2601
     34 C11        -4.5379   -3.3387   -0.2883 C.3       1 <0>         0.0391
     35 C12        -1.5882    0.0215   -1.7944 C.2       1 <0>         0.2355
     36 C13        -5.6739   -1.5006    1.0529 C.3       1 <0>        -0.0362
     37 C14        -3.1317   -2.8048   -0.0571 C.2       1 <0>         0.2151
     38 C15        -2.7948    2.1985   -1.5085 C.3       1 <0>         0.1226
     39 C16        -6.6838   -0.3456    1.1272 C.3       1 <0>        -0.0392
     40 C17         3.5710    1.7336    0.4168 C.2       1 <0>         0.1100
     41 C18         0.5280    3.7424   -0.4618 C.3       1 <0>         0.1229
     42 C19        -1.8645    2.9153   -0.5389 C.2       1 <0>         0.2363
     43 C20        -6.6455    0.4046    2.4582 C.3       1 <0>        -0.0069
     44 C21        -4.2446    2.5952   -1.2829 C.3       1 <0>         0.0711
     45 C22         1.2582    2.4782   -0.0067 C.2       1 <0>         0.2399
     46 C23         4.8725    2.0264    0.5352 C.2       1 <0>         0.0240
     47 C24         0.3126    4.7198    0.6842 C.3       1 <0>         0.0711
     48 C25         6.7077    3.6198    0.4976 C.2       1 <0>         0.3009
     49 H1          3.7277   -2.4305    1.3722 H         1 <0>         0.0694
     50 H2          3.4837   -2.1262   -1.6673 H         1 <0>         0.0628
     51 H3          4.1613   -4.3732   -0.9541 H         1 <0>         0.0357
     52 H4          2.9592   -4.5343    0.3349 H         1 <0>         0.0357
     53 H5          4.9744   -5.9293    0.7009 H         1 <0>         0.1046
     54 H6          5.6172   -1.2589    0.0053 H         1 <0>         0.2447
     55 H7          3.6233    0.0526   -1.3981 H         1 <0>         0.1499
     56 H8         -1.0845   -1.1710   -0.1033 H         1 <0>         0.0610
     57 H9         -0.6085   -2.2520   -2.9398 H         1 <0>         0.0485
     58 H10        -0.5294   -3.2866   -1.5099 H         1 <0>         0.0485
     59 H11         1.4154   -1.3348   -2.3950 H         1 <0>         0.1488
     60 H12        -5.4046   -1.5157   -1.0900 H         1 <0>         0.0463
     61 H13        -3.3474   -1.8115   -1.8729 H         1 <0>         0.1495
     62 H14        -4.5334   -3.8797   -1.2436 H         1 <0>         0.0374
     63 H15        -4.7480   -4.0778    0.4954 H         1 <0>         0.0374
     64 H16        -5.8954   -2.2158    1.8565 H         1 <0>         0.0281
     65 H17        -4.6822   -1.0874    1.2755 H         1 <0>         0.0281
     66 H18         5.2855   -5.1545    2.8731 H         1 <0>         0.2134
     67 H19        -2.4993    2.3909   -2.5459 H         1 <0>         0.0618
     68 H20         8.5468   -3.0796    0.2365 H         1 <0>         0.2412
     69 H21         7.7744   -1.5702   -0.1209 H         1 <0>         0.2412
     70 H22        -7.6975   -0.7337    0.9712 H         1 <0>         0.0278
     71 H23        -6.4804    0.3549    0.3070 H         1 <0>         0.0278
     72 H24        -3.1157    0.3856   -0.4326 H         1 <0>         0.1496
     73 H25         1.1425    4.2190   -1.2371 H         1 <0>         0.0618
     74 H26        -7.6209   -2.1304   -0.7198 H         1 <0>         0.1185
     75 H27        -6.8710   -3.3710   -1.4582 H         1 <0>         0.1185
     76 H28        -6.8642   -0.2802    3.2847 H         1 <0>         0.0422
     77 H29        -5.6471    0.8227    2.6247 H         1 <0>         0.0422
     78 H30        -4.5160    2.6612   -0.2240 H         1 <0>         0.0580
     79 H31        -4.9200    1.8723   -1.7528 H         1 <0>         0.0580
     80 H32         2.9627    3.6309   -0.0529 H         1 <0>         0.1550
     81 H33        -0.6008    3.1966   -2.1561 H         1 <0>         0.1496
     82 H34         5.6023    1.2570    0.7678 H         1 <0>         0.0803
     83 H35        -0.4651    5.4496    0.4361 H         1 <0>         0.0580
     84 H36         0.0361    4.2082    1.6118 H         1 <0>         0.0580
     85 H37        -8.5585    1.1067    2.3275 H         1 <0>         0.1182
     86 H38        -7.6205    1.9487    3.3622 H         1 <0>         0.1182
     87 H39        -3.9096    4.5066   -1.4507 H         1 <0>         0.2095
     88 H40         4.7177    4.0395    0.1704 H         1 <0>         0.1559
     89 H41         1.3587    6.0463    1.6376 H         1 <0>         0.2095
     90 H42         7.8577    5.3670    0.3429 H         1 <0>         0.1465
     91 H43         6.1634    5.6086    0.0833 H         1 <0>         0.1465
@<TRIPOS>BOND
     1    1   27 1
     2    1   66 1
     3    2   28 2
     4    3   33 2
     5    4   35 2
     6    5   37 2
     7    6   44 1
     8    6   87 1
     9    7   42 2
    10    8   45 2
    11    9   47 1
    12    9   89 1
    13   10   48 2
    14   11   24 1
    15   11   29 1
    16   11   54 1
    17   12   25 1
    18   12   33 am
    19   12   55 1
    20   13   28 am
    21   13   31 1
    22   13   59 1
    23   14   27 1
    24   14   29 2
    25   15   30 1
    26   15   37 am
    27   15   61 1
    28   16   29 1
    29   16   68 1
    30   16   69 1
    31   17   35 am
    32   17   38 1
    33   17   72 1
    34   18   32 1
    35   18   74 1
    36   18   75 1
    37   19   40 1
    38   19   45 am
    39   19   80 1
    40   20   41 1
    41   20   42 am
    42   20   81 1
    43   21   43 1
    44   21   85 1
    45   21   86 1
    46   22   46 1
    47   22   48 am
    48   22   88 1
    49   23   48 am
    50   23   90 1
    51   23   91 1
    52   24   25 1
    53   24   26 1
    54   24   49 1
    55   25   28 1
    56   25   50 1
    57   26   27 1
    58   26   51 1
    59   26   52 1
    60   27   53 1
    61   30   31 1
    62   30   35 1
    63   30   56 1
    64   31   57 1
    65   31   58 1
    66   32   34 1
    67   32   36 1
    68   32   60 1
    69   33   40 1
    70   34   37 1
    71   34   62 1
    72   34   63 1
    73   36   39 1
    74   36   64 1
    75   36   65 1
    76   38   42 1
    77   38   44 1
    78   38   67 1
    79   39   43 1
    80   39   70 1
    81   39   71 1
    82   40   46 2
    83   41   45 1
    84   41   47 1
    85   41   73 1
    86   43   76 1
    87   43   77 1
    88   44   78 1
    89   44   79 1
    90   46   82 1
    91   47   83 1
    92   47   84 1
