@<TRIPOS>MOLECULE
DB06144
   57    61     0     0     0
SMALL
USER_CHARGES

@<TRIPOS>ATOM
      1 Cl1         3.8543    5.5715   -0.4183 Cl        1 <0>        -0.0835
      2 F1          7.8489   -4.1100   -0.1753 F         1 <0>        -0.2055
      3 O1         -6.3865   -2.6979    0.9288 O.2       1 <0>        -0.2526
      4 N1         -2.3242   -0.1933    0.5616 N.3       1 <0>        -0.3008
      5 N2          3.9090   -0.2580   -0.0390 N.pl3     1 <0>        -0.3156
      6 N3         -5.9022   -0.7455   -0.3046 N.am      1 <0>        -0.2829
      7 N4         -8.0457   -1.1848    0.2656 N.am      1 <0>        -0.2977
      8 C1          0.4038    0.8328    0.2284 C.3       1 <0>        -0.0115
      9 C2         -0.3735    0.1669   -0.9187 C.3       1 <0>        -0.0333
     10 C3         -0.1305    0.3319    1.5801 C.3       1 <0>        -0.0333
     11 C4         -1.8840    0.3352   -0.7368 C.3       1 <0>        -0.0005
     12 C5         -1.6499    0.4945    1.6709 C.3       1 <0>        -0.0005
     13 C6          1.9007    0.6655    0.0941 C.2       1 <0>        -0.0186
     14 C7         -3.7763   -0.0772    0.6952 C.3       1 <0>         0.0148
     15 C8          2.8524    1.7066   -0.0660 C.ar      1 <0>         0.0050
     16 C9         -4.4726   -0.8238   -0.4330 C.3       1 <0>         0.0289
     17 C10         2.5751   -0.5299    0.1075 C.cat     1 <0>         0.0144
     18 C11         4.1075    1.1000   -0.1476 C.ar      1 <0>         0.0541
     19 C12        -6.6660    0.3877   -0.7973 C.3       1 <0>         0.0318
     20 C13         2.7711    3.1109   -0.1501 C.ar      1 <0>        -0.0339
     21 C14        -8.1159    0.0261   -0.5119 C.3       1 <0>         0.0289
     22 C15         5.2903    1.8303   -0.3098 C.ar      1 <0>        -0.0359
     23 C16         4.9077   -1.2350   -0.0734 C.ar      1 <0>         0.0468
     24 C17        -6.7306   -1.6683    0.3637 C.2       1 <0>         0.3023
     25 C18         3.9458    3.8542   -0.3124 C.ar      1 <0>         0.0417
     26 C19         5.1849    3.2217   -0.3909 C.ar      1 <0>        -0.0414
     27 C20         4.6128   -2.4956   -0.5723 C.ar      1 <0>        -0.0351
     28 C21         6.1783   -0.9284    0.3922 C.ar      1 <0>        -0.0351
     29 C22         5.6099   -3.4705   -0.6064 C.ar      1 <0>        -0.0245
     30 C23         7.1753   -1.9033    0.3581 C.ar      1 <0>        -0.0245
     31 C24         6.8911   -3.1744   -0.1412 C.ar      1 <0>         0.1235
     32 H1          0.1815    1.9079    0.1790 H         1 <0>         0.0350
     33 H2         -0.1319   -0.9033   -0.9717 H         1 <0>         0.0283
     34 H3         -0.0698    0.6029   -1.8788 H         1 <0>         0.0283
     35 H4          0.3451    0.8847    2.3998 H         1 <0>         0.0283
     36 H5          0.1285   -0.7253    1.7250 H         1 <0>         0.0283
     37 H6         -2.3190   -0.2128   -1.5760 H         1 <0>         0.0427
     38 H7         -2.1577    1.3925   -0.8481 H         1 <0>         0.0427
     39 H8         -1.9054    1.5623    1.6836 H         1 <0>         0.0427
     40 H9         -1.9803    0.0699    2.6267 H         1 <0>         0.0427
     41 H10        -4.0884    0.9756    0.7010 H         1 <0>         0.0442
     42 H11        -4.0947   -0.5068    1.6538 H         1 <0>         0.0442
     43 H12        -4.2549   -0.4323   -1.4290 H         1 <0>         0.0478
     44 H13        -4.1866   -1.8821   -0.4084 H         1 <0>         0.0478
     45 H14         2.1954   -1.5357    0.2333 H         1 <0>         0.0816
     46 H15        -6.4804    0.5293   -1.8662 H         1 <0>         0.0480
     47 H16        -6.3620    1.2861   -0.2514 H         1 <0>         0.0480
     48 H17         1.8076    3.6097   -0.0899 H         1 <0>         0.0639
     49 H18        -8.6385    0.7985    0.0587 H         1 <0>         0.0478
     50 H19        -8.6729   -0.1859   -1.4292 H         1 <0>         0.0478
     51 H20         6.2673    1.3963   -0.4731 H         1 <0>         0.0639
     52 H21        -8.8523   -1.6612    0.6565 H         1 <0>         0.1503
     53 H22         6.0913    3.8052   -0.5384 H         1 <0>         0.0633
     54 H23         3.6351   -2.7573   -0.9663 H         1 <0>         0.0639
     55 H24         6.4262   -0.0155    0.9201 H         1 <0>         0.0639
     56 H25         5.3911   -4.4587   -1.0003 H         1 <0>         0.0647
     57 H26         8.1650   -1.6837    0.7479 H         1 <0>         0.0647
@<TRIPOS>BOND
     1    1   25 1
     2    2   31 1
     3    3   24 2
     4    4   11 1
     5    4   12 1
     6    4   14 1
     7    5   17 1
     8    5   18 2
     9    5   23 1
    10    6   16 1
    11    6   19 1
    12    6   24 am
    13    7   21 1
    14    7   24 am
    15    7   52 1
    16    8    9 1
    17    8   10 1
    18    8   13 1
    19    8   32 1
    20    9   11 1
    21    9   33 1
    22    9   34 1
    23   10   12 1
    24   10   35 1
    25   10   36 1
    26   11   37 1
    27   11   38 1
    28   12   39 1
    29   12   40 1
    30   13   15 2
    31   13   17 1
    32   14   16 1
    33   14   41 1
    34   14   42 1
    35   15   18 ar
    36   15   20 ar
    37   16   43 1
    38   16   44 1
    39   17   45 1
    40   18   22 ar
    41   19   21 1
    42   19   46 1
    43   19   47 1
    44   20   25 ar
    45   20   48 1
    46   21   49 1
    47   21   50 1
    48   22   26 ar
    49   22   51 1
    50   23   27 ar
    51   23   28 ar
    52   25   26 ar
    53   26   53 1
    54   27   29 ar
    55   27   54 1
    56   28   30 ar
    57   28   55 1
    58   29   31 ar
    59   29   56 1
    60   30   31 ar
    61   30   57 1
