@<TRIPOS>MOLECULE
DB06769
   44    45     0     0     0
SMALL
USER_CHARGES

@<TRIPOS>ATOM
      1 Cl1        -3.4374   -2.8046    1.9359 Cl        1 <0>        -0.1238
      2 Cl2        -5.1035    1.2788   -2.0940 Cl        1 <0>        -0.1238
      3 O1          4.7071   -3.5498    0.5529 O.3       1 <0>        -0.4806
      4 O2          5.8830   -1.7776    1.3467 O.2       1 <0>        -0.2510
      5 N1          1.5536    1.7056    0.0662 N.pl3     1 <0>        -0.3306
      6 N2         -3.5210   -0.4239   -0.0454 N.pl3     1 <0>        -0.3276
      7 N3          1.2535   -0.0476   -1.2665 N.2       1 <0>        -0.2322
      8 C1          0.2339    1.3603    0.2070 C.2       1 <0>         0.0687
      9 C2          2.1199    0.8357   -0.8235 C.cat     1 <0>         0.1105
     10 C3          0.0714    0.2637   -0.6348 C.2       1 <0>         0.0910
     11 C4          3.5436    0.9209   -1.2091 C.3       1 <0>         0.0061
     12 C5         -2.2436    0.1752    0.0336 C.2       1 <0>         0.0319
     13 C6         -1.1908   -0.3466   -0.7284 C.2       1 <0>        -0.0132
     14 C7          4.4563    0.0794   -0.2888 C.3       1 <0>        -0.0362
     15 C8         -0.8000    1.8970    0.9751 C.2       1 <0>        -0.0343
     16 C9         -2.0495    1.2772    0.8695 C.2       1 <0>        -0.0386
     17 C10        -4.4136   -0.3956    1.0944 C.3       1 <0>         0.0257
     18 C11        -3.9557   -1.0602   -1.2714 C.3       1 <0>         0.0257
     19 C12         2.2224    2.7954    0.7403 C.3       1 <0>         0.0135
     20 C13         4.1073   -1.4093   -0.2803 C.3       1 <0>         0.0452
     21 C14        -3.7911   -1.0955    2.2923 C.3       1 <0>         0.0383
     22 C15        -3.9825   -0.0663   -2.4220 C.3       1 <0>         0.0383
     23 C16         4.9961   -2.2243    0.6326 C.2       1 <0>         0.3047
     24 H1          3.8959    1.9583   -1.2166 H         1 <0>         0.0343
     25 H2          3.6535    0.5595   -2.2395 H         1 <0>         0.0343
     26 H3         -1.2999   -1.2109   -1.3729 H         1 <0>         0.0658
     27 H4          4.4083    0.4675    0.7361 H         1 <0>         0.0274
     28 H5          5.4954    0.2065   -0.6175 H         1 <0>         0.0274
     29 H6         -0.6596    2.7556    1.6212 H         1 <0>         0.0639
     30 H7         -2.8590    1.7086    1.4514 H         1 <0>         0.0637
     31 H8         -4.6954    0.6314    1.3527 H         1 <0>         0.0475
     32 H9         -5.3636   -0.8920    0.8575 H         1 <0>         0.0475
     33 H10        -3.3193   -1.9170   -1.5200 H         1 <0>         0.0475
     34 H11        -4.9608   -1.4857   -1.1551 H         1 <0>         0.0475
     35 H12         1.5785    3.2173    1.5140 H         1 <0>         0.0456
     36 H13         2.4578    3.5631   -0.0010 H         1 <0>         0.0456
     37 H14         3.1339    2.4180    1.2090 H         1 <0>         0.0456
     38 H15         4.2023   -1.8115   -1.2951 H         1 <0>         0.0378
     39 H16         3.0803   -1.5609    0.0674 H         1 <0>         0.0378
     40 H17        -4.4917   -1.0827    3.1331 H         1 <0>         0.0445
     41 H18        -2.8619   -0.6334    2.6340 H         1 <0>         0.0445
     42 H19        -4.3353   -0.5625   -3.3315 H         1 <0>         0.0445
     43 H20        -3.0054    0.3689   -2.6447 H         1 <0>         0.0445
     44 H21         5.2868   -4.0859    1.1350 H         1 <0>         0.2951
@<TRIPOS>BOND
     1    1   21 1
     2    2   22 1
     3    3   23 1
     4    3   44 1
     5    4   23 2
     6    5    8 1
     7    5    9 2
     8    5   19 1
     9    6   12 1
    10    6   17 1
    11    6   18 1
    12    7    9 1
    13    7   10 2
    14    8   10 1
    15    8   15 2
    16    9   11 1
    17   10   13 2
    18   11   14 1
    19   11   24 1
    20   11   25 1
    21   12   13 1
    22   12   16 2
    23   13   26 1
    24   14   20 1
    25   14   27 1
    26   14   28 1
    27   15   16 1
    28   15   29 1
    29   16   30 1
    30   17   21 1
    31   17   31 1
    32   17   32 1
    33   18   22 1
    34   18   33 1
    35   18   34 1
    36   19   35 1
    37   19   36 1
    38   19   37 1
    39   20   23 1
    40   20   38 1
    41   20   39 1
    42   21   40 1
    43   21   41 1
    44   22   42 1
    45   22   43 1
