@<TRIPOS>MOLECULE
DB06716
   40    40     0     0     0
SMALL
USER_CHARGES

@<TRIPOS>ATOM
      1 P1          0.2967   -4.3756    0.2068 P.3       1 <0>         0.4751
      2 O1          0.0233   -0.5685    0.9633 O.3       1 <0>        -0.4651
      3 O2          0.2057   -2.9350    0.9356 O.3       1 <0>        -0.2489
      4 O3          1.5279   -4.2312   -0.8330 O.3       1 <0>        -0.3025
      5 O4         -0.9996   -4.4285   -0.7601 O.3       1 <0>        -0.3025
      6 O5          0.4136   -5.5493    1.1354 O.2       1 <0>        -0.2274
      7 C1          2.4649    0.7513    0.3445 C.3       1 <0>        -0.0181
      8 C2         -2.5499    0.4657    0.3372 C.3       1 <0>        -0.0181
      9 C3          1.1274    1.3199    0.0015 C.ar      1 <0>        -0.0028
     10 C4         -1.2848    1.1824   -0.0022 C.ar      1 <0>        -0.0028
     11 C5         -0.0440    0.6354    0.3255 C.ar      1 <0>         0.1304
     12 C6          1.0583    2.5513   -0.6499 C.ar      1 <0>        -0.0548
     13 C7         -1.3538    2.4139   -0.6537 C.ar      1 <0>        -0.0548
     14 C8          3.2483    1.6435    1.3250 C.3       1 <0>        -0.0585
     15 C9          3.3203    0.4681   -0.9041 C.3       1 <0>        -0.0585
     16 C10        -3.3642    0.0878   -0.9138 C.3       1 <0>        -0.0585
     17 C11        -3.4322    1.2629    1.3153 C.3       1 <0>        -0.0585
     18 C12        -0.1822    3.0983   -0.9776 C.ar      1 <0>        -0.0610
     19 C13         0.0921   -1.7497    0.1584 C.3       1 <0>         0.2015
     20 H1          2.3519   -0.2107    0.8572 H         1 <0>         0.0345
     21 H2         -2.3304   -0.4770    0.8508 H         1 <0>         0.0345
     22 H3          1.9565    3.1033   -0.9126 H         1 <0>         0.0622
     23 H4         -2.3078    2.8605   -0.9193 H         1 <0>         0.0622
     24 H5          3.5083    2.6110    0.8822 H         1 <0>         0.0235
     25 H6          4.1814    1.1553    1.6268 H         1 <0>         0.0235
     26 H7          2.6615    1.8351    2.2301 H         1 <0>         0.0235
     27 H8          2.7851   -0.1823   -1.6046 H         1 <0>         0.0235
     28 H9          4.2523   -0.0351   -0.6243 H         1 <0>         0.0235
     29 H10         3.5866    1.3873   -1.4366 H         1 <0>         0.0235
     30 H11        -3.7315    0.9711   -1.4473 H         1 <0>         0.0235
     31 H12        -4.2340   -0.5177   -0.6367 H         1 <0>         0.0235
     32 H13        -2.7566   -0.4977   -1.6128 H         1 <0>         0.0235
     33 H14        -2.8736    1.5197    2.2223 H         1 <0>         0.0235
     34 H15        -4.3047    0.6720    1.6144 H         1 <0>         0.0235
     35 H16        -3.7990    2.1949    0.8719 H         1 <0>         0.0235
     36 H17        -0.2360    4.0572   -1.4849 H         1 <0>         0.0618
     37 H18         0.9600   -1.6874   -0.5061 H         1 <0>         0.1022
     38 H19        -0.8119   -1.8229   -0.4546 H         1 <0>         0.1022
     39 H20         2.4451   -4.3213   -0.4972 H         1 <0>         0.2220
     40 H21        -1.8712   -4.6577   -0.3726 H         1 <0>         0.2220
@<TRIPOS>BOND
     1    1    3 1
     2    1    4 1
     3    1    5 1
     4    1    6 2
     5    2   11 1
     6    2   19 1
     7    3   19 1
     8    4   39 1
     9    5   40 1
    10    7    9 1
    11    7   14 1
    12    7   15 1
    13    7   20 1
    14    8   10 1
    15    8   16 1
    16    8   17 1
    17    8   21 1
    18    9   11 ar
    19    9   12 ar
    20   10   11 ar
    21   10   13 ar
    22   12   18 ar
    23   12   22 1
    24   13   18 ar
    25   13   23 1
    26   14   24 1
    27   14   25 1
    28   14   26 1
    29   15   27 1
    30   15   28 1
    31   15   29 1
    32   16   30 1
    33   16   31 1
    34   16   32 1
    35   17   33 1
    36   17   34 1
    37   17   35 1
    38   18   36 1
    39   19   37 1
    40   19   38 1
