@<TRIPOS>MOLECULE
DB06228
   47    50     0     0     0
SMALL
USER_CHARGES

@<TRIPOS>ATOM
      1 Cl1       -11.0481    0.0608    0.1638 Cl        1 <0>        -0.0758
      2 S1         -8.3378    1.2652    0.3143 S.3       1 <0>        -0.0722
      3 O1         -2.5075   -0.6135   -1.3138 O.3       1 <0>        -0.4436
      4 O2          7.9822   -0.3038    0.2770 O.3       1 <0>        -0.3690
      5 O3         -0.8928   -2.1950   -1.5011 O.2       1 <0>        -0.2259
      6 O4          5.5983    2.1837   -0.6630 O.2       1 <0>        -0.2727
      7 O5         -5.5253    2.1614    0.4530 O.2       1 <0>        -0.2696
      8 N1         -0.3967    0.0168   -0.8224 N.am      1 <0>        -0.2337
      9 N2          5.1923   -0.0351    0.0102 N.am      1 <0>        -0.2673
     10 N3         -4.5452    0.0887    0.6093 N.am      1 <0>        -0.3073
     11 C1         -2.6070    0.6977   -0.7407 C.3       1 <0>         0.1361
     12 C2         -1.1854    1.2172   -0.7436 C.3       1 <0>         0.0616
     13 C3         -3.1997    0.5799    0.6566 C.3       1 <0>         0.0506
     14 C4          1.0118    0.0037   -0.6126 C.ar      1 <0>         0.0397
     15 C5         -1.2031   -1.0450   -1.2241 C.2       1 <0>         0.4076
     16 C6          3.7647   -0.0218   -0.2027 C.ar      1 <0>         0.0365
     17 C7          5.8429   -1.3283    0.2581 C.3       1 <0>         0.0433
     18 C8          1.6674    1.1662   -0.2074 C.ar      1 <0>        -0.0384
     19 C9          1.7358   -1.1716   -0.8124 C.ar      1 <0>        -0.0384
     20 C10         3.0470    1.1536   -0.0019 C.ar      1 <0>        -0.0385
     21 C11         3.1154   -1.1845   -0.6069 C.ar      1 <0>        -0.0385
     22 C12         7.1462   -1.1803    1.0159 C.3       1 <0>         0.0644
     23 C13         5.9809    1.1104   -0.1934 C.2       1 <0>         0.2456
     24 C14         7.4327    0.9926    0.2575 C.3       1 <0>         0.1242
     25 C15        -5.6535    0.9369    0.5075 C.2       1 <0>         0.2508
     26 C16        -6.9670    0.2812    0.4367 C.2       1 <0>         0.0752
     27 C17        -7.2240   -1.0452    0.4589 C.2       1 <0>        -0.0411
     28 C18        -8.6253   -1.2872    0.3708 C.2       1 <0>        -0.0355
     29 C19        -9.3479   -0.1173    0.2870 C.2       1 <0>         0.0787
     30 H1         -3.2472    1.3161   -1.3799 H         1 <0>         0.0766
     31 H2         -0.9888    1.8109   -1.6436 H         1 <0>         0.0507
     32 H3         -0.9702    1.8125    0.1483 H         1 <0>         0.0507
     33 H4         -3.1855    1.5506    1.1639 H         1 <0>         0.0499
     34 H5         -2.6321   -0.1332    1.2647 H         1 <0>         0.0499
     35 H6          5.1826   -1.9796    0.8409 H         1 <0>         0.0491
     36 H7          6.0371   -1.7784   -0.7229 H         1 <0>         0.0491
     37 H8          1.1459    2.1025   -0.0367 H         1 <0>         0.0637
     38 H9          1.2919   -2.1053   -1.1301 H         1 <0>         0.0637
     39 H10         3.5059    2.0668    0.3617 H         1 <0>         0.0637
     40 H11         3.6438   -2.1136   -0.7970 H         1 <0>         0.0637
     41 H12        -4.6666   -0.9174    0.6380 H         1 <0>         0.1492
     42 H13         7.6498   -2.1485    1.0979 H         1 <0>         0.0576
     43 H14         6.9917   -0.7917    2.0297 H         1 <0>         0.0576
     44 H15         8.0448    1.5944   -0.4229 H         1 <0>         0.0657
     45 H16         7.5145    1.4388    1.2558 H         1 <0>         0.0657
     46 H17        -6.4941   -1.8399    0.5320 H         1 <0>         0.0631
     47 H18        -9.0747   -2.2724    0.3693 H         1 <0>         0.0638
@<TRIPOS>BOND
     1    1   29 1
     2    2   26 1
     3    2   29 1
     4    3   11 1
     5    3   15 1
     6    4   22 1
     7    4   24 1
     8    5   15 2
     9    6   23 2
    10    7   25 2
    11    8   12 1
    12    8   14 1
    13    8   15 am
    14    9   16 1
    15    9   17 1
    16    9   23 am
    17   10   13 1
    18   10   25 am
    19   10   41 1
    20   11   12 1
    21   11   13 1
    22   11   30 1
    23   12   31 1
    24   12   32 1
    25   13   33 1
    26   13   34 1
    27   14   18 ar
    28   14   19 ar
    29   16   20 ar
    30   16   21 ar
    31   17   22 1
    32   17   35 1
    33   17   36 1
    34   18   20 ar
    35   18   37 1
    36   19   21 ar
    37   19   38 1
    38   20   39 1
    39   21   40 1
    40   22   42 1
    41   22   43 1
    42   23   24 1
    43   24   44 1
    44   24   45 1
    45   25   26 1
    46   26   27 2
    47   27   28 1
    48   27   46 1
    49   28   29 2
    50   28   47 1
