@<TRIPOS>MOLECULE
DB06148
   40    43     0     0     0
SMALL
USER_CHARGES

@<TRIPOS>ATOM
      1 N1          0.3735   -1.0268    0.1733 N.pl3     1 <0>        -0.3201
      2 N2          3.1147   -0.2296    0.1607 N.3       1 <0>        -0.3018
      3 C1          0.7283    0.3417    0.6167 C.3       1 <0>         0.0617
      4 C2          2.0495    0.7560   -0.0776 C.3       1 <0>         0.0214
      5 C3          1.4363   -2.0275    0.3296 C.3       1 <0>         0.0256
      6 C4         -0.2840    1.4728    0.4325 C.ar      1 <0>        -0.0224
      7 C5          2.7153   -1.5435   -0.3536 C.3       1 <0>         0.0144
      8 C6         -0.9424   -1.4852    0.1614 C.ar      1 <0>         0.0338
      9 C7         -1.2669    1.5150   -0.5749 C.ar      1 <0>        -0.0380
     10 C8         -1.4996    0.3400   -1.4846 C.3       1 <0>        -0.0003
     11 C9         -1.8998   -0.8635   -0.6680 C.ar      1 <0>        -0.0220
     12 C10         4.3655    0.2053   -0.4605 C.3       1 <0>        -0.0126
     13 C11        -0.1743    2.5798    1.3004 C.ar      1 <0>        -0.0565
     14 C12        -1.3617   -2.5915    0.9232 C.ar      1 <0>        -0.0404
     15 C13        -2.0984    2.6429   -0.6956 C.ar      1 <0>        -0.0579
     16 C14        -3.2232   -1.3310   -0.7116 C.ar      1 <0>        -0.0565
     17 C15        -1.0067    3.6918    1.1738 C.ar      1 <0>        -0.0614
     18 C16        -1.9673    3.7248    0.1718 C.ar      1 <0>        -0.0615
     19 C17        -2.6788   -3.0551    0.8739 C.ar      1 <0>        -0.0600
     20 C18        -3.6092   -2.4251    0.0565 C.ar      1 <0>        -0.0614
     21 H1          0.9112    0.2644    1.6991 H         1 <0>         0.0562
     22 H2          1.8813    0.8866   -1.1565 H         1 <0>         0.0448
     23 H3          2.3750    1.7289    0.3133 H         1 <0>         0.0448
     24 H4          1.1549   -2.9807   -0.1359 H         1 <0>         0.0476
     25 H5          1.6210   -2.2144    1.3952 H         1 <0>         0.0476
     26 H6          3.5066   -2.2782   -0.1615 H         1 <0>         0.0442
     27 H7          2.5606   -1.5047   -1.4405 H         1 <0>         0.0442
     28 H8         -2.2757    0.5674   -2.2264 H         1 <0>         0.0362
     29 H9         -0.5959    0.1281   -2.0700 H         1 <0>         0.0362
     30 H10         4.6865    1.1673   -0.0459 H         1 <0>         0.0391
     31 H11         4.2744    0.3111   -1.5477 H         1 <0>         0.0391
     32 H12         5.1682   -0.5100   -0.2497 H         1 <0>         0.0391
     33 H13         0.5801    2.5842    2.0848 H         1 <0>         0.0621
     34 H14        -0.6667   -3.1060    1.5834 H         1 <0>         0.0636
     35 H15        -2.8669    2.6788   -1.4643 H         1 <0>         0.0620
     36 H16        -3.9598   -0.8413   -1.3433 H         1 <0>         0.0621
     37 H17        -0.8992    4.5313    1.8542 H         1 <0>         0.0618
     38 H18        -2.6180    4.5877    0.0679 H         1 <0>         0.0618
     39 H19        -2.9751   -3.9083    1.4774 H         1 <0>         0.0618
     40 H20        -4.6335   -2.7832    0.0190 H         1 <0>         0.0618
@<TRIPOS>BOND
     1    1    3 1
     2    1    5 1
     3    1    8 1
     4    2    4 1
     5    2    7 1
     6    2   12 1
     7    3    4 1
     8    3    6 1
     9    3   21 1
    10    4   22 1
    11    4   23 1
    12    5    7 1
    13    5   24 1
    14    5   25 1
    15    6    9 ar
    16    6   13 ar
    17    7   26 1
    18    7   27 1
    19    8   11 ar
    20    8   14 ar
    21    9   10 1
    22    9   15 ar
    23   10   11 1
    24   10   28 1
    25   10   29 1
    26   11   16 ar
    27   12   30 1
    28   12   31 1
    29   12   32 1
    30   13   17 ar
    31   13   33 1
    32   14   19 ar
    33   14   34 1
    34   15   18 ar
    35   15   35 1
    36   16   20 ar
    37   16   36 1
    38   17   18 ar
    39   17   37 1
    40   18   38 1
    41   19   20 ar
    42   19   39 1
    43   20   40 1
