@<TRIPOS>MOLECULE
DB06775
   23    22     0     0     0
SMALL
USER_CHARGES

@<TRIPOS>ATOM
      1 O1          0.2879    3.0617    0.1860 O.3       1 <0>        -0.4793
      2 O2         -0.8588    2.1944   -1.5700 O.2       1 <0>        -0.2489
      3 O3          3.5411   -1.4890   -0.9454 O.3       1 <0>        -0.4806
      4 O4          3.1823   -1.2073    1.2770 O.2       1 <0>        -0.2510
      5 O5         -2.6138   -0.8147    1.7015 O.2       1 <0>        -0.2531
      6 N1         -1.5360   -0.0145   -0.1984 N.am      1 <0>        -0.2864
      7 N2         -3.2386   -1.5509   -0.3812 N.am      1 <0>        -0.3133
      8 C1         -0.6077    0.8704    0.4587 C.3       1 <0>         0.1219
      9 C2          0.7016    0.1729    0.8473 C.3       1 <0>        -0.0140
     10 C3          1.5364   -0.3771   -0.3163 C.3       1 <0>         0.0470
     11 C4         -0.4152    2.0784   -0.4349 C.2       1 <0>         0.3253
     12 C5          2.8113   -1.0663    0.1200 C.2       1 <0>         0.3048
     13 C6         -2.4692   -0.7897    0.4807 C.2       1 <0>         0.2977
     14 H1         -1.0967    1.2305    1.3730 H         1 <0>         0.0615
     15 H2          1.3241    0.8740    1.4185 H         1 <0>         0.0294
     16 H3          0.4731   -0.6538    1.5331 H         1 <0>         0.0294
     17 H4          1.8170    0.4438   -0.9854 H         1 <0>         0.0378
     18 H5          0.9456   -1.1059   -0.8820 H         1 <0>         0.0378
     19 H6         -1.4915   -0.1007   -1.2097 H         1 <0>         0.1511
     20 H7          0.3982    3.8498   -0.3875 H         1 <0>         0.2951
     21 H8         -3.1049   -1.5170   -1.3861 H         1 <0>         0.1465
     22 H9         -3.9634   -2.1685   -0.0315 H         1 <0>         0.1465
     23 H10         4.3771   -1.9204   -0.6676 H         1 <0>         0.2951
@<TRIPOS>BOND
     1    1   11 1
     2    1   20 1
     3    2   11 2
     4    3   12 1
     5    3   23 1
     6    4   12 2
     7    5   13 2
     8    6    8 1
     9    6   13 am
    10    6   19 1
    11    7   13 am
    12    7   21 1
    13    7   22 1
    14    8    9 1
    15    8   11 1
    16    8   14 1
    17    9   10 1
    18    9   15 1
    19    9   16 1
    20   10   12 1
    21   10   17 1
    22   10   18 1
