@<TRIPOS>MOLECULE
DB06262
   26    26     0     0     0
SMALL
USER_CHARGES

@<TRIPOS>ATOM
      1 O1         -1.3993   -0.1000   -1.9711 O.3       1 <0>        -0.3812
      2 O2          2.9046   -2.3451    0.0083 O.3       1 <0>        -0.5033
      3 O3         -1.9670    1.4920    2.0195 O.co2     1 <0>        -0.5441
      4 O4         -1.3772   -0.6134    2.6720 O.co2     1 <0>        -0.5441
      5 O5          4.4719   -0.0669    0.2908 O.3       1 <0>        -0.5033
      6 N1         -3.3698   -0.1959   -0.0307 N.4       1 <0>         0.2270
      7 C1         -1.0672    0.4082   -0.6780 C.3       1 <0>         0.1279
      8 C2         -1.9360   -0.2675    0.4016 C.3       1 <0>         0.0466
      9 C3          0.4219    0.2767   -0.4183 C.ar      1 <0>        -0.0097
     10 C4          0.9786   -0.9847   -0.3242 C.ar      1 <0>        -0.0107
     11 C5          1.1832    1.4222   -0.2811 C.ar      1 <0>        -0.0522
     12 C6         -1.7405    0.2645    1.8358 C.2       1 <0>         0.0922
     13 C7          2.3473   -1.1054   -0.0844 C.ar      1 <0>         0.1586
     14 C8          2.5519    1.3016   -0.0414 C.ar      1 <0>        -0.0162
     15 C9          3.1341    0.0378    0.0569 C.ar      1 <0>         0.1582
     16 H1         -1.3180    1.4775   -0.7005 H         1 <0>         0.0705
     17 H2         -1.7384   -1.3466    0.4046 H         1 <0>         0.0944
     18 H3         -3.6874    0.7782   -0.1238 H         1 <0>         0.2002
     19 H4         -3.9865   -0.6574    0.6514 H         1 <0>         0.2002
     20 H5         -3.5174   -0.6617   -0.9358 H         1 <0>         0.2002
     21 H6          0.3692   -1.8759   -0.4448 H         1 <0>         0.0659
     22 H7          0.7419    2.4116   -0.3549 H         1 <0>         0.0622
     23 H8         -2.2157    0.3390   -2.2645 H         1 <0>         0.2105
     24 H9          3.1532    2.2004    0.0669 H         1 <0>         0.0655
     25 H10         2.2104   -3.0150   -0.1144 H         1 <0>         0.2923
     26 H11         4.8521    0.8256    0.3601 H         1 <0>         0.2923
@<TRIPOS>BOND
     1    1    7 1
     2    1   23 1
     3    2   13 1
     4    2   25 1
     5    3   12 2
     6    4   12 1
     7    5   15 1
     8    5   26 1
     9    6    8 1
    10    6   18 1
    11    6   19 1
    12    6   20 1
    13    7    8 1
    14    7    9 1
    15    7   16 1
    16    8   12 1
    17    8   17 1
    18    9   10 ar
    19    9   11 ar
    20   10   13 ar
    21   10   21 1
    22   11   14 ar
    23   11   22 1
    24   13   15 ar
    25   14   15 ar
    26   14   24 1
