@<TRIPOS>MOLECULE
DB06230
   50    55     0     0     0
SMALL
USER_CHARGES

@<TRIPOS>ATOM
      1 O1         -3.0443   -0.2184   -1.6437 O.3       1 <0>        -0.4796
      2 O2         -0.1313    2.5482    0.4053 O.3       1 <0>        -0.3860
      3 O3         -4.0926   -2.9217   -1.4973 O.3       1 <0>        -0.5033
      4 N1          1.8188    0.5765    0.2293 N.3       1 <0>        -0.2960
      5 C1         -0.9607    0.5196   -0.6077 C.3       1 <0>         0.0715
      6 C2         -0.5239    1.1979    0.7020 C.3       1 <0>         0.0955
      7 C3          0.7246    0.3954    1.2162 C.3       1 <0>         0.0441
      8 C4         -2.2995    0.9779   -1.2296 C.3       1 <0>         0.1336
      9 C5          0.1833    0.5532   -1.6483 C.3       1 <0>        -0.0239
     10 C6         -1.3238   -0.8875   -0.2909 C.ar      1 <0>         0.0140
     11 C7         -1.6588    1.3025    1.7565 C.3       1 <0>        -0.0177
     12 C8          0.3819   -1.1112    1.5142 C.3       1 <0>        -0.0089
     13 C9          1.5160    0.0270   -1.0945 C.3       1 <0>         0.0003
     14 C10        -0.6956   -1.6997    0.6370 C.ar      1 <0>        -0.0382
     15 C11        -3.0844    1.3904    1.1789 C.3       1 <0>        -0.0258
     16 C12         3.1199    0.1255    0.7119 C.3       1 <0>         0.0021
     17 C13        -3.1269    1.8048   -0.2668 C.2       1 <0>        -0.0357
     18 C14         4.2104    0.5486   -0.2535 C.3       1 <0>        -0.0282
     19 C15        -2.4696   -1.2583   -0.9590 C.ar      1 <0>         0.1668
     20 C16         5.6101    0.1670    0.0612 C.3       1 <0>        -0.0488
     21 C17         4.8757   -0.5036   -1.0625 C.3       1 <0>        -0.0488
     22 C18        -1.1914   -2.9961    0.7804 C.ar      1 <0>        -0.0546
     23 C19        -2.9743   -2.5338   -0.8343 C.ar      1 <0>         0.1588
     24 C20        -3.8108    2.8850   -0.6733 C.2       1 <0>        -0.0960
     25 C21        -2.3114   -3.4140    0.0325 C.ar      1 <0>        -0.0162
     26 H1          1.0620    0.8651    2.1500 H         1 <0>         0.0494
     27 H2         -2.1176    1.5584   -2.1434 H         1 <0>         0.0791
     28 H3          0.3269    1.5844   -1.9974 H         1 <0>         0.0288
     29 H4         -0.0800   -0.0341   -2.5382 H         1 <0>         0.0288
     30 H5         -1.4854    2.1942    2.3744 H         1 <0>         0.0297
     31 H6         -1.6400    0.4582    2.4544 H         1 <0>         0.0297
     32 H7          0.0224   -1.1657    2.5505 H         1 <0>         0.0329
     33 H8          1.2699   -1.7485    1.4702 H         1 <0>         0.0329
     34 H9          1.5045   -1.0699   -1.0730 H         1 <0>         0.0427
     35 H10         2.2775    0.3107   -1.8294 H         1 <0>         0.0427
     36 H11         3.3352    0.6060    1.6741 H         1 <0>         0.0429
     37 H12         3.1526   -0.9573    0.8749 H         1 <0>         0.0429
     38 H13        -3.6783    2.0657    1.8075 H         1 <0>         0.0312
     39 H14        -3.5688    0.4099    1.2710 H         1 <0>         0.0312
     40 H15         4.0715    1.5399   -0.6681 H         1 <0>         0.0313
     41 H16         0.7544    2.5313    0.0060 H         1 <0>         0.2103
     42 H17         5.8062   -0.4156    0.9529 H         1 <0>         0.0268
     43 H18         6.3977    0.8638   -0.1985 H         1 <0>         0.0268
     44 H19         5.1658   -0.2528   -2.0756 H         1 <0>         0.0268
     45 H20         4.5878   -1.5389   -0.9280 H         1 <0>         0.0268
     46 H21        -0.7385   -3.6826    1.4906 H         1 <0>         0.0622
     47 H22        -3.8171    3.1892   -1.7147 H         1 <0>         0.0536
     48 H23        -4.3816    3.4879    0.0251 H         1 <0>         0.0536
     49 H24        -2.6815   -4.4276    0.1700 H         1 <0>         0.0655
     50 H25        -4.2870   -3.8470   -1.2695 H         1 <0>         0.2923
@<TRIPOS>BOND
     1    1    8 1
     2    1   19 1
     3    2    6 1
     4    2   41 1
     5    3   23 1
     6    3   50 1
     7    4    7 1
     8    4   13 1
     9    4   16 1
    10    5    6 1
    11    5    8 1
    12    5    9 1
    13    5   10 1
    14    6    7 1
    15    6   11 1
    16    7   12 1
    17    7   26 1
    18    8   17 1
    19    8   27 1
    20    9   13 1
    21    9   28 1
    22    9   29 1
    23   10   14 ar
    24   10   19 ar
    25   11   15 1
    26   11   30 1
    27   11   31 1
    28   12   14 1
    29   12   32 1
    30   12   33 1
    31   13   34 1
    32   13   35 1
    33   14   22 ar
    34   15   17 1
    35   15   38 1
    36   15   39 1
    37   16   18 1
    38   16   36 1
    39   16   37 1
    40   17   24 2
    41   18   20 1
    42   18   21 1
    43   18   40 1
    44   19   23 ar
    45   20   21 1
    46   20   42 1
    47   20   43 1
    48   21   44 1
    49   21   45 1
    50   22   25 ar
    51   22   46 1
    52   23   25 ar
    53   24   47 1
    54   24   48 1
    55   25   49 1
