@<TRIPOS>MOLECULE
DB06816
   57    60     0     0     0
SMALL
USER_CHARGES

@<TRIPOS>ATOM
      1 N1         -3.4054   -0.1549    0.1733 N.pl3     1 <0>        -0.3171
      2 N2          1.6490    2.0122    0.2207 N.ar      1 <0>        -0.1936
      3 N3          5.9320   -1.5050   -0.0694 N.pl3     1 <0>        -0.3360
      4 C1         -3.3231    1.1511   -0.2338 C.cat     1 <0>         0.0281
      5 C2         -2.0361    1.5417   -0.0388 C.2       1 <0>        -0.0038
      6 C3          2.6900    1.1606    0.1585 C.ar      1 <0>         0.2152
      7 C4         -2.1789   -0.5753    0.6181 C.2       1 <0>         0.0215
      8 C5          2.9592    0.4964   -1.0586 C.ar      1 <0>         0.0482
      9 C6          0.8483    2.2638   -0.8235 C.ar      1 <0>         0.2080
     10 C7         -1.3010    0.4786    0.4937 C.2       1 <0>        -0.0334
     11 C8         -4.5625   -0.9396    0.1401 C.ar      1 <0>         0.0465
     12 C9         -1.5268    2.8582   -0.3423 C.2       1 <0>        -0.0467
     13 C10        -0.2622    3.1975   -0.6894 C.2       1 <0>         0.0103
     14 C11         4.0453   -0.3910   -1.1201 C.ar      1 <0>        -0.0272
     15 C12         4.8431   -0.6107    0.0047 C.ar      1 <0>         0.0302
     16 C13         2.1290    0.7511   -2.1585 C.ar      1 <0>        -0.0420
     17 C14         1.0664    1.6405   -2.0408 C.ar      1 <0>         0.0105
     18 C15         3.4933    0.9358    1.2809 C.ar      1 <0>         0.0121
     19 C16        -4.4930    1.8867   -0.7687 C.3       1 <0>        -0.0233
     20 C17        -1.9363   -1.9432    1.1265 C.3       1 <0>        -0.0239
     21 C18         4.5677    0.0509    1.2012 C.ar      1 <0>        -0.0344
     22 C19         1.3564    2.7126    1.4854 C.3       1 <0>         0.1415
     23 C20        -5.4062   -0.9566    1.2411 C.ar      1 <0>        -0.0378
     24 C21        -4.8490   -1.6849   -0.9942 C.ar      1 <0>        -0.0378
     25 C22         7.1052   -1.3022    0.7566 C.3       1 <0>         0.0004
     26 C23         5.8846   -2.6453   -0.9625 C.3       1 <0>         0.0004
     27 C24        -6.5622   -1.7366    1.2071 C.ar      1 <0>        -0.0598
     28 C25        -6.0049   -2.4648   -1.0282 C.ar      1 <0>        -0.0598
     29 C26        -6.8615   -2.4907    0.0725 C.ar      1 <0>        -0.0616
     30 H1         -0.2682    0.4239    0.7953 H         1 <0>         0.0641
     31 H2         -2.2433    3.6771   -0.3111 H         1 <0>         0.0626
     32 H3         -0.0285    4.2391   -0.8936 H         1 <0>         0.0683
     33 H4          4.2585   -0.8919   -2.0619 H         1 <0>         0.0644
     34 H5          2.3044    0.2588   -3.1121 H         1 <0>         0.0628
     35 H6          0.4290    1.8308   -2.8994 H         1 <0>         0.0683
     36 H7          3.3239    1.4139    2.2398 H         1 <0>         0.0684
     37 H8         -4.9662    1.3358   -1.5883 H         1 <0>         0.0292
     38 H9         -5.2383    2.0488    0.0169 H         1 <0>         0.0292
     39 H10        -4.2176    2.8672   -1.1676 H         1 <0>         0.0292
     40 H11        -0.8901   -2.0674    1.4262 H         1 <0>         0.0292
     41 H12        -2.5563   -2.1535    2.0038 H         1 <0>         0.0292
     42 H13        -2.1485   -2.6929    0.3575 H         1 <0>         0.0292
     43 H14         5.1639   -0.1118    2.0948 H         1 <0>         0.0638
     44 H15         2.2502    3.2762    1.7732 H         1 <0>         0.0993
     45 H16         0.5448    3.4355    1.4403 H         1 <0>         0.0993
     46 H17         1.0996    1.9624    2.2398 H         1 <0>         0.0993
     47 H18        -5.1844   -0.3729    2.1306 H         1 <0>         0.0638
     48 H19        -4.1897   -1.6724   -1.8583 H         1 <0>         0.0638
     49 H20         6.9305   -1.6647    1.7750 H         1 <0>         0.0428
     50 H21         7.3915   -0.2451    0.7955 H         1 <0>         0.0428
     51 H22         7.9680   -1.8467    0.3566 H         1 <0>         0.0428
     52 H23         6.6152   -3.4074   -0.6689 H         1 <0>         0.0428
     53 H24         4.9013   -3.1290   -0.9447 H         1 <0>         0.0428
     54 H25         6.1184   -2.3444   -1.9892 H         1 <0>         0.0428
     55 H26        -7.2293   -1.7567    2.0638 H         1 <0>         0.0618
     56 H27        -6.2382   -3.0518   -1.9116 H         1 <0>         0.0618
     57 H28        -7.7614   -3.0979    0.0459 H         1 <0>         0.0618
@<TRIPOS>BOND
     1    1    4 1
     2    1    7 2
     3    1   11 1
     4    2    6 ar
     5    2    9 ar
     6    2   22 1
     7    3   15 1
     8    3   25 1
     9    3   26 1
    10    4    5 1
    11    4   19 1
    12    5   10 2
    13    5   12 1
    14    6    8 ar
    15    6   18 ar
    16    7   10 1
    17    7   20 1
    18    8   14 ar
    19    8   16 ar
    20    9   13 1
    21    9   17 ar
    22   10   30 1
    23   11   23 ar
    24   11   24 ar
    25   12   13 2
    26   12   31 1
    27   13   32 1
    28   14   15 ar
    29   14   33 1
    30   15   21 ar
    31   16   17 ar
    32   16   34 1
    33   17   35 1
    34   18   21 ar
    35   18   36 1
    36   19   37 1
    37   19   38 1
    38   19   39 1
    39   20   40 1
    40   20   41 1
    41   20   42 1
    42   21   43 1
    43   22   44 1
    44   22   45 1
    45   22   46 1
    46   23   27 ar
    47   23   47 1
    48   24   28 ar
    49   24   48 1
    50   25   49 1
    51   25   50 1
    52   25   51 1
    53   26   52 1
    54   26   53 1
    55   26   54 1
    56   27   29 ar
    57   27   55 1
    58   28   29 ar
    59   28   56 1
    60   29   57 1
