@<TRIPOS>MOLECULE
DB06694
   42    43     0     0     0
SMALL
USER_CHARGES

@<TRIPOS>ATOM
      1 N1          4.3442    0.4776   -0.2175 N.pl3     1 <0>        -0.2335
      2 N2          2.8020   -0.7603    0.9084 N.2       1 <0>        -0.0837
      3 C1         -3.3254    0.0469    0.3470 C.3       1 <0>        -0.0127
      4 C2         -1.8469    0.0235   -0.1106 C.ar      1 <0>        -0.0415
      5 C3          0.7650   -0.0188   -0.9156 C.ar      1 <0>        -0.0301
      6 C4          0.0612   -1.2141   -0.7679 C.ar      1 <0>        -0.0462
      7 C5          0.1357    1.1980   -0.6525 C.ar      1 <0>        -0.0462
      8 C6         -1.2716   -1.1925   -0.3572 C.ar      1 <0>        -0.0549
      9 C7         -1.1969    1.2196   -0.2416 C.ar      1 <0>        -0.0549
     10 C8         -3.4778   -0.7386    1.6678 C.3       1 <0>        -0.0560
     11 C9         -4.2198   -0.5938   -0.7364 C.3       1 <0>        -0.0560
     12 C10        -3.8646    1.4721    0.5992 C.3       1 <0>        -0.0560
     13 C11         2.1943   -0.0422   -1.3560 C.3       1 <0>         0.0758
     14 C12         3.1242   -0.1269   -0.1908 C.2       1 <0>         0.2854
     15 C13         0.7129   -2.5302   -1.0419 C.3       1 <0>        -0.0394
     16 C14         0.8672    2.4914   -0.8046 C.3       1 <0>        -0.0394
     17 C15         5.0177    0.2803    1.0303 C.3       1 <0>         0.1194
     18 C16         4.0016   -0.5900    1.7851 C.3       1 <0>         0.1671
     19 H1         -1.8165   -2.1237   -0.2440 H         1 <0>         0.0623
     20 H2         -1.6503    2.1829   -0.0485 H         1 <0>         0.0623
     21 H3         -4.5094   -0.6940    2.0364 H         1 <0>         0.0238
     22 H4         -3.2262   -1.7985    1.5542 H         1 <0>         0.0238
     23 H5         -2.8268   -0.3275    2.4486 H         1 <0>         0.0238
     24 H6         -3.9826   -1.6504   -0.9015 H         1 <0>         0.0238
     25 H7         -5.2780   -0.5453   -0.4539 H         1 <0>         0.0238
     26 H8         -4.1074   -0.0772   -1.6971 H         1 <0>         0.0238
     27 H9         -4.9129    1.4374    0.9218 H         1 <0>         0.0238
     28 H10        -3.3134    1.9872    1.3947 H         1 <0>         0.0238
     29 H11        -3.8407    2.0890   -0.3070 H         1 <0>         0.0238
     30 H12         2.4056   -0.8885   -2.0185 H         1 <0>         0.0436
     31 H13         2.4462    0.8347   -1.9624 H         1 <0>         0.0436
     32 H14         1.6219   -2.6700   -0.4520 H         1 <0>         0.0278
     33 H15         0.0491   -3.3641   -0.7854 H         1 <0>         0.0278
     34 H16         0.9461   -2.6290   -2.1072 H         1 <0>         0.0278
     35 H17         0.2712    3.3371   -0.4432 H         1 <0>         0.0278
     36 H18         1.0934    2.6849   -1.8580 H         1 <0>         0.0278
     37 H19         1.7932    2.4930   -0.2209 H         1 <0>         0.0278
     38 H20         5.1891    1.2308    1.5440 H         1 <0>         0.0765
     39 H21         5.9717   -0.2378    0.8973 H         1 <0>         0.0765
     40 H22         4.7271    1.0176   -0.9838 H         1 <0>         0.2912
     41 H23         4.4236   -1.5742    2.0150 H         1 <0>         0.0829
     42 H24         3.7029   -0.1166    2.7263 H         1 <0>         0.0829
@<TRIPOS>BOND
     1    1   14 1
     2    1   17 1
     3    1   40 1
     4    2   14 2
     5    2   18 1
     6    3    4 1
     7    3   10 1
     8    3   11 1
     9    3   12 1
    10    4    8 ar
    11    4    9 ar
    12    5    6 ar
    13    5    7 ar
    14    5   13 1
    15    6    8 ar
    16    6   15 1
    17    7    9 ar
    18    7   16 1
    19    8   19 1
    20    9   20 1
    21   10   21 1
    22   10   22 1
    23   10   23 1
    24   11   24 1
    25   11   25 1
    26   11   26 1
    27   12   27 1
    28   12   28 1
    29   12   29 1
    30   13   14 1
    31   13   30 1
    32   13   31 1
    33   15   32 1
    34   15   33 1
    35   15   34 1
    36   16   35 1
    37   16   36 1
    38   16   37 1
    39   17   18 1
    40   17   38 1
    41   17   39 1
    42   18   41 1
    43   18   42 1
