@<TRIPOS>MOLECULE
DB06753
   14    13     0     0     0
SMALL
USER_CHARGES

@<TRIPOS>ATOM
      1 Cl1         3.3664   -0.0255   -1.3210 Cl        1 <0>        -0.0809
      2 Cl2         2.6914   -1.4322    1.1325 Cl        1 <0>        -0.0809
      3 Cl3         2.6849    1.4815    1.0700 Cl        1 <0>        -0.0809
      4 P1         -1.6053    0.0037    0.5721 P.3       1 <0>         0.4725
      5 O1         -0.0059    0.0125    0.8230 O.3       1 <0>        -0.2825
      6 O2         -1.8358   -1.2751   -0.3906 O.3       1 <0>        -0.3026
      7 O3         -1.8221    1.2610   -0.4214 O.3       1 <0>        -0.3026
      8 O4         -2.4423    0.0283    1.8176 O.2       1 <0>        -0.2275
      9 C1          0.8548   -0.0095   -0.3026 C.3       1 <0>         0.1057
     10 C2          2.3205    0.0029    0.1317 C.3       1 <0>         0.2140
     11 H1          0.6393    0.8617   -0.9321 H         1 <0>         0.0608
     12 H2          0.6426   -0.9079   -0.8939 H         1 <0>         0.0608
     13 H3         -2.7523   -1.5300   -0.6296 H         1 <0>         0.2220
     14 H4         -2.7362    1.5285   -0.6557 H         1 <0>         0.2220
@<TRIPOS>BOND
     1    1   10 1
     2    2   10 1
     3    3   10 1
     4    4    5 1
     5    4    6 1
     6    4    7 1
     7    4    8 2
     8    5    9 1
     9    6   13 1
    10    7   14 1
    11    9   10 1
    12    9   11 1
    13    9   12 1
