@<TRIPOS>MOLECULE
DB06717
   63    66     0     0     0
SMALL
USER_CHARGES

@<TRIPOS>ATOM
      1 P1          5.9949   -1.9728    0.9084 P.3       1 <0>         0.4549
      2 F1         -1.6604   -3.8701   -2.1403 F         1 <0>        -0.2055
      3 F2         -2.1414   -3.3984    2.0418 F         1 <0>        -0.1659
      4 F3         -4.2777   -3.7696    2.0891 F         1 <0>        -0.1659
      5 F4         -3.1868   -3.9499    0.2166 F         1 <0>        -0.1659
      6 F5         -6.2618    1.7046   -0.9259 F         1 <0>        -0.1659
      7 F6         -6.2298   -0.1997   -1.9637 F         1 <0>        -0.1659
      8 F7         -7.3086   -0.0061   -0.0855 F         1 <0>        -0.1659
      9 O1         -0.1436    3.4479   -0.0838 O.3       1 <0>        -0.3481
     10 O2         -0.6615    1.4150    1.0014 O.3       1 <0>        -0.3418
     11 O3          6.9498    0.9466    0.1005 O.2       1 <0>        -0.2425
     12 O4          7.4334   -2.2546    0.2126 O.3       1 <0>        -0.3066
     13 O5          6.4256   -1.3455    2.3426 O.3       1 <0>        -0.3066
     14 O6          5.1247   -3.1982    1.0310 O.2       1 <0>        -0.2325
     15 N1          1.7397    1.4147   -0.8303 N.3       1 <0>        -0.2818
     16 N2          4.0715   -0.7515   -0.5099 N.pl3     1 <0>        -0.2703
     17 N3          4.9150    1.2748   -0.9819 N.2       1 <0>        -0.1758
     18 N4          5.3118   -0.7029    0.0483 N.am      1 <0>        -0.1350
     19 C1          0.3176    1.3525   -1.2587 C.3       1 <0>         0.0875
     20 C2         -0.5910    2.0988   -0.2482 C.3       1 <0>         0.1793
     21 C3          2.1339    2.8186   -0.6088 C.3       1 <0>         0.0236
     22 C4          1.2026    3.4996    0.3835 C.3       1 <0>         0.0635
     23 C5          2.6444    0.8232   -1.8249 C.3       1 <0>         0.0592
     24 C6         -0.2154   -0.0561   -1.4965 C.ar      1 <0>        -0.0253
     25 C7         -1.9131    1.6273    1.6351 C.3       1 <0>         0.0839
     26 C8          3.8976    0.4581   -1.1111 C.2       1 <0>         0.1417
     27 C9         -1.1366   -0.2899   -2.5175 C.ar      1 <0>        -0.0542
     28 C10         0.2175   -1.1109   -0.6929 C.ar      1 <0>        -0.0542
     29 C11        -2.8898    0.5714    1.1755 C.ar      1 <0>        -0.0180
     30 C12        -1.7246    1.6136    3.1480 C.3       1 <0>        -0.0344
     31 C13        -1.6247   -1.5783   -2.7350 C.ar      1 <0>        -0.0261
     32 C14        -0.2706   -2.3993   -0.9104 C.ar      1 <0>        -0.0261
     33 C15        -4.0321    0.9398    0.4649 C.ar      1 <0>        -0.0445
     34 C16        -2.6496   -0.7727    1.4612 C.ar      1 <0>        -0.0445
     35 C17        -1.1917   -2.6330   -1.9314 C.ar      1 <0>         0.1234
     36 C18         5.8434    0.5461   -0.2410 C.2       1 <0>         0.3737
     37 C19        -4.9345   -0.0356    0.0403 C.ar      1 <0>         0.0557
     38 C20        -3.5518   -1.7482    1.0366 C.ar      1 <0>         0.0557
     39 C21        -4.6942   -1.3796    0.3262 C.ar      1 <0>        -0.0385
     40 C22        -3.2949   -3.1852    1.3420 C.3       1 <0>         0.4174
     41 C23        -6.1560    0.3584   -0.7192 C.3       1 <0>         0.4174
     42 H1          0.2578    1.8970   -2.2138 H         1 <0>         0.0563
     43 H2         -1.5878    2.1633   -0.7034 H         1 <0>         0.0929
     44 H3          3.1470    2.8922   -0.2036 H         1 <0>         0.0449
     45 H4          2.1069    3.3746   -1.5556 H         1 <0>         0.0449
     46 H5          1.4758    4.5551    0.4839 H         1 <0>         0.0573
     47 H6          1.2719    3.0494    1.3808 H         1 <0>         0.0573
     48 H7          2.2564   -0.1006   -2.2655 H         1 <0>         0.0507
     49 H8          2.8630    1.5040   -2.6562 H         1 <0>         0.0507
     50 H9         -2.2961    2.6278    1.3893 H         1 <0>         0.0644
     51 H10        -1.4845    0.5237   -3.1482 H         1 <0>         0.0622
     52 H11         0.9208   -0.9536    0.1200 H         1 <0>         0.0622
     53 H12        -1.2409    0.6933    3.4933 H         1 <0>         0.0258
     54 H13        -2.6779    1.7256    3.6748 H         1 <0>         0.0258
     55 H14        -1.0633    2.4342    3.4489 H         1 <0>         0.0258
     56 H15         3.4512   -1.5451   -0.4312 H         1 <0>         0.1889
     57 H16        -2.3433   -1.7604   -3.5287 H         1 <0>         0.0646
     58 H17         0.0618   -3.2198   -0.2814 H         1 <0>         0.0646
     59 H18        -4.2151    1.9882    0.2436 H         1 <0>         0.0627
     60 H19        -1.7555   -1.0610    2.0075 H         1 <0>         0.0627
     61 H20        -5.3971   -2.1402   -0.0055 H         1 <0>         0.0629
     62 H21         7.9740   -3.0070    0.5349 H         1 <0>         0.2216
     63 H22         6.7940   -1.9438    3.0271 H         1 <0>         0.2216
@<TRIPOS>BOND
     1    1   12 1
     2    1   13 1
     3    1   14 2
     4    1   18 1
     5    2   35 1
     6    3   40 1
     7    4   40 1
     8    5   40 1
     9    6   41 1
    10    7   41 1
    11    8   41 1
    12    9   20 1
    13    9   22 1
    14   10   20 1
    15   10   25 1
    16   11   36 2
    17   12   62 1
    18   13   63 1
    19   15   19 1
    20   15   21 1
    21   15   23 1
    22   16   18 2
    23   16   26 1
    24   16   56 1
    25   17   26 2
    26   17   36 1
    27   18   36 am
    28   19   20 1
    29   19   24 1
    30   19   42 1
    31   20   43 1
    32   21   22 1
    33   21   44 1
    34   21   45 1
    35   22   46 1
    36   22   47 1
    37   23   26 1
    38   23   48 1
    39   23   49 1
    40   24   27 ar
    41   24   28 ar
    42   25   29 1
    43   25   30 1
    44   25   50 1
    45   27   31 ar
    46   27   51 1
    47   28   32 ar
    48   28   52 1
    49   29   33 ar
    50   29   34 ar
    51   30   53 1
    52   30   54 1
    53   30   55 1
    54   31   35 ar
    55   31   57 1
    56   32   35 ar
    57   32   58 1
    58   33   37 ar
    59   33   59 1
    60   34   38 ar
    61   34   60 1
    62   37   39 ar
    63   37   41 1
    64   38   39 ar
    65   38   40 1
    66   39   61 1
