@<TRIPOS>MOLECULE
DB07776
   27    29     0     0     0
SMALL
USER_CHARGES

@<TRIPOS>ATOM
      1 O1          0.3966    0.7082   -0.1237 O.3       1 <0>        -0.4546
      2 O2          1.9075   -3.0240    0.4980 O.2       1 <0>        -0.2870
      3 C1          2.3377   -0.7334    0.1071 C.ar      1 <0>         0.0640
      4 C2         -0.4295   -0.3865    0.0806 C.2       1 <0>         0.1392
      5 C3          1.7547    0.5152   -0.1024 C.ar      1 <0>         0.1392
      6 C4         -1.8706   -0.0679    0.0327 C.ar      1 <0>         0.0174
      7 C5          1.4644   -1.8989    0.3138 C.2       1 <0>         0.1931
      8 C6          0.0111   -1.6381    0.2852 C.2       1 <0>         0.0287
      9 C7          3.7277   -0.8711    0.1178 C.ar      1 <0>        -0.0474
     10 C8          2.5604    1.6360   -0.3032 C.ar      1 <0>        -0.0186
     11 C9         -2.7861   -1.0217   -0.4195 C.ar      1 <0>        -0.0511
     12 C10        -2.3259    1.1892    0.4394 C.ar      1 <0>        -0.0511
     13 C11         4.5312    0.2518   -0.0827 C.ar      1 <0>        -0.0609
     14 C12         3.9492    1.5027   -0.2928 C.ar      1 <0>        -0.0582
     15 C13        -4.1473   -0.7207   -0.4650 C.ar      1 <0>        -0.0611
     16 C14        -3.6872    1.4899    0.3940 C.ar      1 <0>        -0.0611
     17 C15        -4.5978    0.5349   -0.0582 C.ar      1 <0>        -0.0617
     18 H1         -0.6365   -2.4899    0.4566 H         1 <0>         0.0693
     19 H2          4.1986   -1.8367    0.2794 H         1 <0>         0.0626
     20 H3          2.1156    2.6137   -0.4675 H         1 <0>         0.0654
     21 H4         -2.4735   -2.0033   -0.7657 H         1 <0>         0.0625
     22 H5         -1.6395    1.9494    0.8040 H         1 <0>         0.0625
     23 H6          5.6129    0.1523   -0.0755 H         1 <0>         0.0618
     24 H7          4.5786    2.3741   -0.4486 H         1 <0>         0.0619
     25 H8         -4.8563   -1.4621   -0.8217 H         1 <0>         0.0618
     26 H9         -4.0387    2.4671    0.7121 H         1 <0>         0.0618
     27 H10        -5.6577    0.7695   -0.0944 H         1 <0>         0.0618
@<TRIPOS>BOND
     1    1    4 1
     2    1    5 1
     3    2    7 2
     4    3    5 ar
     5    3    7 1
     6    3    9 ar
     7    4    6 1
     8    4    8 2
     9    5   10 ar
    10    6   11 ar
    11    6   12 ar
    12    7    8 1
    13    8   18 1
    14    9   13 ar
    15    9   19 1
    16   10   14 ar
    17   10   20 1
    18   11   15 ar
    19   11   21 1
    20   12   16 ar
    21   12   22 1
    22   13   14 ar
    23   13   23 1
    24   14   24 1
    25   15   17 ar
    26   15   25 1
    27   16   17 ar
    28   16   26 1
    29   17   27 1
