@<TRIPOS>MOLECULE
DB07565
   43    43     0     0     0
SMALL
USER_CHARGES

@<TRIPOS>ATOM
      1 Cl1        -0.2744   -6.4480    0.3864 Cl        1 <0>        -0.0945
      2 Cl2         2.1972   -5.4341   -0.7945 Cl        1 <0>        -0.0945
      3 O1         -2.2715   -1.8033    1.7194 O.3       1 <0>        -0.3852
      4 O2          1.2378   -0.2708   -0.2521 O.3       1 <0>        -0.4627
      5 O3         -0.4715   -4.0999   -1.6246 O.2       1 <0>        -0.2729
      6 O4          2.0876    0.8150   -2.1008 O.2       1 <0>        -0.2508
      7 O5         -4.4672    4.6617   -0.0127 O.3       1 <0>        -0.5760
      8 O6         -5.6710    3.3427   -1.2895 O.2       1 <0>         0.0414
      9 O7          6.1761    3.1909   -0.0731 O.3       1 <0>        -0.4806
     10 O8          5.2722    1.9670    1.6144 O.2       1 <0>        -0.2510
     11 N1         -0.0995   -2.8055    0.2625 N.am      1 <0>        -0.3042
     12 N2         -4.7197    3.5301   -0.4929 N.pl3     1 <0>         0.0796
     13 C1         -0.8045   -1.6284   -0.2087 C.3       1 <0>         0.0872
     14 C2         -1.4426   -0.8929    0.9893 C.3       1 <0>         0.1016
     15 C3          0.1495   -0.7633   -1.0407 C.3       1 <0>         0.1134
     16 C4         -2.3123    0.2798    0.5962 C.ar      1 <0>        -0.0169
     17 C5         -2.0388    1.5309    1.1224 C.ar      1 <0>        -0.0497
     18 C6         -3.3638    0.0788   -0.2822 C.ar      1 <0>        -0.0497
     19 C7          0.0056   -3.9546   -0.5001 C.2       1 <0>         0.2462
     20 C8         -2.8405    2.6132    0.7597 C.ar      1 <0>         0.0159
     21 C9         -4.1654    1.1612   -0.6449 C.ar      1 <0>         0.0159
     22 C10        -3.9038    2.4283   -0.1239 C.ar      1 <0>         0.2732
     23 C11         2.1393    0.5122   -0.9169 C.2       1 <0>         0.3077
     24 C12         3.2183    0.9436    0.0531 C.3       1 <0>         0.0550
     25 C13         0.7861   -5.0417    0.2010 C.3       1 <0>         0.1830
     26 C14         4.2341    1.8957   -0.5666 C.3       1 <0>         0.0548
     27 C15         5.2565    2.3422    0.4491 C.2       1 <0>         0.3052
     28 H1         -1.5957   -1.9918   -0.8758 H         1 <0>         0.0561
     29 H2         -0.6539   -0.5728    1.6817 H         1 <0>         0.0663
     30 H3         -0.3923    0.0865   -1.4720 H         1 <0>         0.0717
     31 H4          0.5601   -1.3574   -1.8670 H         1 <0>         0.0717
     32 H5          0.3810   -2.7476    1.1554 H         1 <0>         0.1493
     33 H6         -1.2128    1.6869    1.8103 H         1 <0>         0.0623
     34 H7         -3.5911   -0.9023   -0.6876 H         1 <0>         0.0623
     35 H8         -2.7292   -1.3032    2.4168 H         1 <0>         0.2103
     36 H9         -2.6069    3.5859    1.1850 H         1 <0>         0.0685
     37 H10        -4.9868    0.9793   -1.3334 H         1 <0>         0.0685
     38 H11         3.7264    0.0427    0.4167 H         1 <0>         0.0383
     39 H12         2.7283    1.4321    0.9041 H         1 <0>         0.0383
     40 H13         1.1350   -4.7397    1.1916 H         1 <0>         0.0732
     41 H14         3.7258    2.7844   -0.9571 H         1 <0>         0.0383
     42 H15         4.7573    1.4001   -1.3918 H         1 <0>         0.0383
     43 H16         6.8409    3.4661    0.5937 H         1 <0>         0.2951
@<TRIPOS>BOND
     1    1   25 1
     2    2   25 1
     3    3   14 1
     4    3   35 1
     5    4   15 1
     6    4   23 1
     7    5   19 2
     8    6   23 2
     9    7   12 1
    10    8   12 2
    11    9   27 1
    12    9   43 1
    13   10   27 2
    14   11   13 1
    15   11   19 am
    16   11   32 1
    17   12   22 1
    18   13   14 1
    19   13   15 1
    20   13   28 1
    21   14   16 1
    22   14   29 1
    23   15   30 1
    24   15   31 1
    25   16   17 ar
    26   16   18 ar
    27   17   20 ar
    28   17   33 1
    29   18   21 ar
    30   18   34 1
    31   19   25 1
    32   20   22 ar
    33   20   36 1
    34   21   22 ar
    35   21   37 1
    36   23   24 1
    37   24   26 1
    38   24   38 1
    39   24   39 1
    40   25   40 1
    41   26   27 1
    42   26   41 1
    43   26   42 1
