@<TRIPOS>MOLECULE
DB08967
   51    53     0     0     0
SMALL
USER_CHARGES

@<TRIPOS>ATOM
      1 S1          3.7277    0.9384   -1.5274 S.o2      1 <0>         0.0604
      2 S2         -1.5635    3.3803    0.9129 S.3       1 <0>        -0.0857
      3 O1          3.3714   -0.0683   -2.5212 O.2       1 <0>        -0.1529
      4 O2          4.5782    2.0501   -1.9384 O.2       1 <0>        -0.1529
      5 N1         -1.3244    0.5547   -0.3609 N.pl3     1 <0>        -0.2968
      6 N2         -0.3848   -2.9759    0.4390 N.3       1 <0>        -0.3042
      7 N3          4.4580    0.1492   -0.1720 N.pl3     1 <0>        -0.1827
      8 C1         -0.4771   -1.5300    0.6498 C.3       1 <0>         0.0231
      9 C2         -1.1915   -0.8958   -0.5481 C.3       1 <0>         0.0327
     10 C3         -0.1324    1.3222   -0.3389 C.ar      1 <0>         0.0498
     11 C4         -2.6369    1.0856   -0.2844 C.ar      1 <0>         0.0479
     12 C5         -0.1189    2.6276    0.1910 C.ar      1 <0>         0.0342
     13 C6         -1.2126   -1.2716    1.9648 C.3       1 <0>        -0.0480
     14 C7          1.0802    0.8357   -0.8748 C.ar      1 <0>        -0.0129
     15 C8         -2.8716    2.3676    0.2512 C.ar      1 <0>         0.0341
     16 C9          2.2520    1.5971   -0.8653 C.ar      1 <0>         0.1073
     17 C10         1.0643    3.3876    0.2026 C.ar      1 <0>        -0.0443
     18 C11        -3.7590    0.3787   -0.7695 C.ar      1 <0>        -0.0393
     19 C12         2.2448    2.8734   -0.3233 C.ar      1 <0>        -0.0342
     20 C13         0.3142   -3.2647   -0.8121 C.3       1 <0>        -0.0127
     21 C14        -1.7179   -3.5758    0.4315 C.3       1 <0>        -0.0127
     22 C15        -4.1744    2.8925    0.3176 C.ar      1 <0>        -0.0462
     23 C16        -5.0511    0.9072   -0.7057 C.ar      1 <0>        -0.0599
     24 C17        -5.2595    2.1642   -0.1589 C.ar      1 <0>        -0.0606
     25 C18         4.7915    0.9830    1.0107 C.3       1 <0>         0.0086
     26 C19         3.9226   -1.1799    0.2182 C.3       1 <0>         0.0086
     27 H1          0.5394   -1.1461    0.7766 H         1 <0>         0.0475
     28 H2         -0.7053   -1.0720   -1.5124 H         1 <0>         0.0483
     29 H3         -2.1541   -1.3789   -0.6493 H         1 <0>         0.0483
     30 H4         -2.2995   -1.3793    1.8851 H         1 <0>         0.0245
     31 H5         -0.8496   -1.9243    2.7674 H         1 <0>         0.0245
     32 H6         -1.0281   -0.2437    2.2993 H         1 <0>         0.0245
     33 H7          1.1307   -0.1511   -1.3235 H         1 <0>         0.0656
     34 H8          1.0783    4.3910    0.6238 H         1 <0>         0.0630
     35 H9         -3.6897   -0.5753   -1.2810 H         1 <0>         0.0636
     36 H10         3.1420    3.4845   -0.2951 H         1 <0>         0.0637
     37 H11         1.2511   -2.7022   -0.8905 H         1 <0>         0.0391
     38 H12        -0.2833   -3.0963   -1.7144 H         1 <0>         0.0391
     39 H13         0.5981   -4.3240   -0.8228 H         1 <0>         0.0391
     40 H14        -1.5951   -4.6657    0.3669 H         1 <0>         0.0391
     41 H15        -2.3522   -3.3103   -0.4190 H         1 <0>         0.0391
     42 H16        -2.2750   -3.4319    1.3612 H         1 <0>         0.0391
     43 H17        -4.3578    3.8780    0.7411 H         1 <0>         0.0629
     44 H18        -5.8895    0.3398   -1.0995 H         1 <0>         0.0618
     45 H19        -6.2610    2.5801   -0.1086 H         1 <0>         0.0618
     46 H20         5.2093    1.9446    0.7002 H         1 <0>         0.0408
     47 H21         5.5557    0.4769    1.6092 H         1 <0>         0.0408
     48 H22         3.9085    1.1494    1.6339 H         1 <0>         0.0408
     49 H23         3.7979   -1.8202   -0.6588 H         1 <0>         0.0408
     50 H24         2.9672   -1.0751    0.7376 H         1 <0>         0.0408
     51 H25         4.6322   -1.6809    0.8844 H         1 <0>         0.0408
@<TRIPOS>BOND
     1    1    3 2
     2    1    4 2
     3    1    7 1
     4    1   16 1
     5    2   12 1
     6    2   15 1
     7    5    9 1
     8    5   10 1
     9    5   11 1
    10    6    8 1
    11    6   20 1
    12    6   21 1
    13    7   25 1
    14    7   26 1
    15    8    9 1
    16    8   13 1
    17    8   27 1
    18    9   28 1
    19    9   29 1
    20   10   12 ar
    21   10   14 ar
    22   11   15 ar
    23   11   18 ar
    24   12   17 ar
    25   13   30 1
    26   13   31 1
    27   13   32 1
    28   14   16 ar
    29   14   33 1
    30   15   22 ar
    31   16   19 ar
    32   17   19 ar
    33   17   34 1
    34   18   23 ar
    35   18   35 1
    36   19   36 1
    37   20   37 1
    38   20   38 1
    39   20   39 1
    40   21   40 1
    41   21   41 1
    42   21   42 1
    43   22   24 ar
    44   22   43 1
    45   23   24 ar
    46   23   44 1
    47   24   45 1
    48   25   46 1
    49   25   47 1
    50   25   48 1
    51   26   49 1
    52   26   50 1
    53   26   51 1
