@<TRIPOS>MOLECULE
DB08797
   17    17     0     0     0
SMALL
USER_CHARGES

@<TRIPOS>ATOM
      1 O1          0.4596    2.4189    0.0031 O.3       1 <0>        -0.5060
      2 O2         -2.0422    1.9156   -0.0124 O.2       1 <0>        -0.2703
      3 N1         -2.8340   -0.2365    0.0020 N.am      1 <0>        -0.3252
      4 C1         -0.4358    0.1934    0.0016 C.ar      1 <0>         0.0778
      5 C2          0.6497    1.0693    0.0020 C.ar      1 <0>         0.1289
      6 C3         -0.2200   -1.1847   -0.0000 C.ar      1 <0>        -0.0461
      7 C4          1.9511    0.5671    0.0006 C.ar      1 <0>        -0.0194
      8 C5          1.0813   -1.6869   -0.0014 C.ar      1 <0>        -0.0608
      9 C6          2.1668   -0.8109   -0.0011 C.ar      1 <0>        -0.0583
     10 C7         -1.8024    0.6966    0.0026 C.2       1 <0>         0.2451
     11 H1         -1.0084   -1.9271   -0.0010 H         1 <0>         0.0626
     12 H2          2.8063    1.2377    0.0006 H         1 <0>         0.0654
     13 H3          1.2508   -2.7598   -0.0028 H         1 <0>         0.0618
     14 H4          3.1801   -1.2021   -0.0022 H         1 <0>         0.0619
     15 H5         -2.7332   -1.2428    0.0099 H         1 <0>         0.1453
     16 H6         -3.7953    0.0905   -0.0044 H         1 <0>         0.1453
     17 H7          1.3257    2.8618    0.0030 H         1 <0>         0.2922
@<TRIPOS>BOND
     1    1    5 1
     2    1   17 1
     3    2   10 2
     4    3   10 am
     5    3   15 1
     6    3   16 1
     7    4    5 ar
     8    4    6 ar
     9    4   10 1
    10    5    7 ar
    11    6    8 ar
    12    6   11 1
    13    7    9 ar
    14    7   12 1
    15    8    9 ar
    16    8   13 1
    17    9   14 1
