@<TRIPOS>MOLECULE
DB08950
   51    54     0     0     0
SMALL
USER_CHARGES

@<TRIPOS>ATOM
      1 O1         -4.7906    1.1809    1.4883 O.2       1 <0>        -0.2702
      2 N1          0.4913    2.0294   -0.1440 N.3       1 <0>        -0.3019
      3 N2         -3.0460    1.0245   -0.0312 N.am      1 <0>        -0.3084
      4 N3          6.0267    0.2749   -0.5538 N.pl3     1 <0>        -0.3604
      5 C1         -2.4003    2.2681    0.3255 C.3       1 <0>         0.0257
      6 C2         -1.7059    2.8964   -0.8849 C.3       1 <0>        -0.0216
      7 C3         -1.3941    2.0621    1.4601 C.3       1 <0>        -0.0216
      8 C4         -0.4349    2.1375   -1.2791 C.3       1 <0>         0.0006
      9 C5         -0.1331    1.3314    0.9877 C.3       1 <0>         0.0006
     10 C6          1.7212    1.3492   -0.5496 C.3       1 <0>         0.0029
     11 C7          2.7131    1.2721    0.6116 C.3       1 <0>        -0.0129
     12 C8          3.9949    0.5927    0.2004 C.2       1 <0>        -0.0212
     13 C9          4.2518   -0.7859    0.2837 C.ar      1 <0>         0.0029
     14 C10        -4.2030    0.5823    0.5911 C.2       1 <0>         0.2443
     15 C11         5.0789    1.2322   -0.3099 C.cat     1 <0>         0.0059
     16 C12         5.5492   -0.9670   -0.2007 C.ar      1 <0>         0.0467
     17 C13        -4.7276   -0.7284    0.1287 C.ar      1 <0>         0.0367
     18 C14         3.5268   -1.9131    0.7184 C.ar      1 <0>        -0.0523
     19 C15         6.1599   -2.2240   -0.2724 C.ar      1 <0>        -0.0378
     20 C16         4.1250   -3.1768    0.6526 C.ar      1 <0>        -0.0611
     21 C17         5.4214   -3.3276    0.1645 C.ar      1 <0>        -0.0598
     22 C18        -5.4749   -1.4922    1.0011 C.ar      1 <0>        -0.0496
     23 C19        -4.4503   -1.1398   -1.1583 C.ar      1 <0>        -0.0496
     24 C20        -5.9670   -2.7231    0.5667 C.ar      1 <0>        -0.0610
     25 C21        -4.9425   -2.3706   -1.5927 C.ar      1 <0>        -0.0610
     26 C22        -5.7009   -3.1622   -0.7301 C.ar      1 <0>        -0.0617
     27 H1         -3.1810    2.9554    0.6740 H         1 <0>         0.0499
     28 H2         -1.4402    3.9346   -0.6460 H         1 <0>         0.0295
     29 H3         -2.3895    2.9321   -1.7418 H         1 <0>         0.0295
     30 H4         -1.8519    1.5030    2.2852 H         1 <0>         0.0295
     31 H5         -1.1070    3.0424    1.8634 H         1 <0>         0.0295
     32 H6         -0.6920    1.1463   -1.6736 H         1 <0>         0.0427
     33 H7          0.0467    2.6906   -2.0950 H         1 <0>         0.0427
     34 H8          0.5150    1.3147    1.8675 H         1 <0>         0.0427
     35 H9         -0.3728    0.2916    0.7304 H         1 <0>         0.0427
     36 H10         1.5057    0.3397   -0.9263 H         1 <0>         0.0430
     37 H11         2.1874    1.9020   -1.3759 H         1 <0>         0.0430
     38 H12         2.3283    0.7000    1.4609 H         1 <0>         0.0326
     39 H13         2.9397    2.2801    0.9835 H         1 <0>         0.0326
     40 H14        -2.5546    0.4194   -0.6796 H         1 <0>         0.1493
     41 H15         5.2775    2.2724   -0.5275 H         1 <0>         0.0810
     42 H16         6.9445    0.4533   -0.9377 H         1 <0>         0.1653
     43 H17         2.5145   -1.8141    1.1000 H         1 <0>         0.0624
     44 H18         7.1692   -2.3425   -0.6523 H         1 <0>         0.0638
     45 H19         3.5702   -4.0498    0.9860 H         1 <0>         0.0618
     46 H20         5.8666   -4.3184    0.1220 H         1 <0>         0.0618
     47 H21        -5.6866   -1.1672    2.0154 H         1 <0>         0.0625
     48 H22        -3.8945   -0.5392   -1.8708 H         1 <0>         0.0625
     49 H23        -6.5568   -3.3400    1.2385 H         1 <0>         0.0618
     50 H24        -4.7424   -2.7095   -2.6049 H         1 <0>         0.0618
     51 H25        -6.0854   -4.1198   -1.0688 H         1 <0>         0.0618
@<TRIPOS>BOND
     1    1   14 2
     2    2    8 1
     3    2    9 1
     4    2   10 1
     5    3    5 1
     6    3   14 am
     7    3   40 1
     8    4   15 1
     9    4   16 2
    10    4   42 1
    11    5    6 1
    12    5    7 1
    13    5   27 1
    14    6    8 1
    15    6   28 1
    16    6   29 1
    17    7    9 1
    18    7   30 1
    19    7   31 1
    20    8   32 1
    21    8   33 1
    22    9   34 1
    23    9   35 1
    24   10   11 1
    25   10   36 1
    26   10   37 1
    27   11   12 1
    28   11   38 1
    29   11   39 1
    30   12   13 2
    31   12   15 1
    32   13   16 ar
    33   13   18 ar
    34   14   17 1
    35   15   41 1
    36   16   19 ar
    37   17   22 ar
    38   17   23 ar
    39   18   20 ar
    40   18   43 1
    41   19   21 ar
    42   19   44 1
    43   20   21 ar
    44   20   45 1
    45   21   46 1
    46   22   24 ar
    47   22   47 1
    48   23   25 ar
    49   23   48 1
    50   24   26 ar
    51   24   49 1
    52   25   26 ar
    53   25   50 1
    54   26   51 1
