@<TRIPOS>MOLECULE
DB08860
   55    58     0     0     0
SMALL
USER_CHARGES

@<TRIPOS>ATOM
      1 F1         -1.6899   -4.9129   -0.1791 F         1 <0>        -0.2055
      2 O1         -2.6169    2.8406   -0.4941 O.3       1 <0>        -0.3877
      3 O2         -5.3362   -0.1801   -1.7502 O.3       1 <0>        -0.3912
      4 O3         -4.0253   -0.7376    2.1927 O.3       1 <0>        -0.4806
      5 O4         -5.3280   -1.8407    0.6947 O.2       1 <0>        -0.2509
      6 N1          3.6875    1.4618    0.3740 N.ar      1 <0>        -0.2507
      7 C1          1.9052    3.0173    0.8341 C.3       1 <0>         0.0020
      8 C2          1.4456    3.8813   -0.2936 C.3       1 <0>        -0.0442
      9 C3          2.7557    4.1590    0.3833 C.3       1 <0>        -0.0442
     10 C4          2.3545    1.6193    0.5418 C.ar      1 <0>         0.0527
     11 C5          1.4495    0.5894    0.4555 C.ar      1 <0>         0.0046
     12 C6          1.9208   -0.6793    0.1826 C.ar      1 <0>         0.0001
     13 C7          4.1543    0.2272    0.1076 C.ar      1 <0>         0.0719
     14 C8          3.2950   -0.8867    0.0019 C.ar      1 <0>         0.0087
     15 C9          0.0134    0.8531    0.6507 C.2       1 <0>        -0.0538
     16 C10         0.9764   -1.7869    0.0880 C.ar      1 <0>        -0.0165
     17 C11        -0.8411    1.2084   -0.3229 C.2       1 <0>        -0.0552
     18 C12        -2.3158    1.4908   -0.1550 C.3       1 <0>         0.0760
     19 C13         5.5193    0.0205   -0.0721 C.ar      1 <0>        -0.0357
     20 C14         3.8164   -2.1613   -0.2771 C.ar      1 <0>        -0.0520
     21 C15        -3.1460    0.5337   -1.0282 C.3       1 <0>         0.0034
     22 C16        -4.6628    0.7363   -0.8908 C.3       1 <0>         0.0679
     23 C17         6.0380   -1.2466   -0.3494 C.ar      1 <0>        -0.0597
     24 C18         5.1859   -2.3392   -0.4522 C.ar      1 <0>        -0.0611
     25 C19         0.6568   -2.5148    1.2270 C.ar      1 <0>        -0.0513
     26 C20         0.4079   -2.1001   -1.1401 C.ar      1 <0>        -0.0513
     27 C21        -5.1652    0.5670    0.5447 C.3       1 <0>         0.0708
     28 C22        -0.2464   -3.5739    1.1364 C.ar      1 <0>        -0.0259
     29 C23        -0.4954   -3.1593   -1.2306 C.ar      1 <0>        -0.0259
     30 C24        -0.8224   -3.8961   -0.0924 C.ar      1 <0>         0.1234
     31 C25        -4.8594   -0.7945    1.1250 C.2       1 <0>         0.3072
     32 H1          1.4104    3.1674    1.7915 H         1 <0>         0.0364
     33 H2          0.6253    4.5636   -0.1056 H         1 <0>         0.0272
     34 H3          1.4775    3.4938   -1.3050 H         1 <0>         0.0272
     35 H4          2.8133    5.0298    1.0265 H         1 <0>         0.0272
     36 H5          3.6536    3.9881   -0.1978 H         1 <0>         0.0272
     37 H6         -0.3427    0.7406    1.6716 H         1 <0>         0.0622
     38 H7         -0.4546    1.3189   -1.3354 H         1 <0>         0.0598
     39 H8         -2.5759    1.3632    0.9000 H         1 <0>         0.0638
     40 H9          6.2077    0.8602    0.0034 H         1 <0>         0.0639
     41 H10         3.1875   -3.0428   -0.3663 H         1 <0>         0.0624
     42 H11        -2.8888    0.6795   -2.0868 H         1 <0>         0.0318
     43 H12        -2.8834   -0.5091   -0.8062 H         1 <0>         0.0318
     44 H13        -4.9309    1.7402   -1.2379 H         1 <0>         0.0599
     45 H14         5.5858   -3.3254   -0.6677 H         1 <0>         0.0618
     46 H15         7.1078   -1.3761   -0.4846 H         1 <0>         0.0618
     47 H16         1.0976   -2.2753    2.1915 H         1 <0>         0.0624
     48 H17         0.6530   -1.5351   -2.0359 H         1 <0>         0.0624
     49 H18        -4.7695    1.3478    1.2022 H         1 <0>         0.0403
     50 H19        -6.2573    0.6703    0.5727 H         1 <0>         0.0403
     51 H20        -0.5016   -4.1476    2.0225 H         1 <0>         0.0646
     52 H21        -0.9447   -3.4097   -2.1869 H         1 <0>         0.0646
     53 H22        -2.3974    2.9702   -1.4327 H         1 <0>         0.2102
     54 H23        -5.0629   -1.0808   -1.5068 H         1 <0>         0.2098
     55 H24        -3.8414   -1.6276    2.5617 H         1 <0>         0.2951
@<TRIPOS>BOND
     1    1   30 1
     2    2   18 1
     3    2   53 1
     4    3   22 1
     5    3   54 1
     6    4   31 1
     7    4   55 1
     8    5   31 2
     9    6   10 ar
    10    6   13 ar
    11    7    8 1
    12    7    9 1
    13    7   10 1
    14    7   32 1
    15    8    9 1
    16    8   33 1
    17    8   34 1
    18    9   35 1
    19    9   36 1
    20   10   11 ar
    21   11   12 ar
    22   11   15 1
    23   12   14 ar
    24   12   16 1
    25   13   14 ar
    26   13   19 ar
    27   14   20 ar
    28   15   17 2
    29   15   37 1
    30   16   25 ar
    31   16   26 ar
    32   17   18 1
    33   17   38 1
    34   18   21 1
    35   18   39 1
    36   19   23 ar
    37   19   40 1
    38   20   24 ar
    39   20   41 1
    40   21   22 1
    41   21   42 1
    42   21   43 1
    43   22   27 1
    44   22   44 1
    45   23   24 ar
    46   23   46 1
    47   24   45 1
    48   25   28 ar
    49   25   47 1
    50   26   29 ar
    51   26   48 1
    52   27   31 1
    53   27   49 1
    54   27   50 1
    55   28   30 ar
    56   28   51 1
    57   29   30 ar
    58   29   52 1
