@<TRIPOS>MOLECULE
DB08908
   18    17     0     0     0
SMALL
USER_CHARGES

@<TRIPOS>ATOM
      1 O1         -2.8433   -0.6114   -0.0001 O.3       1 <0>        -0.4649
      2 O2          2.8435    0.6116    0.0001 O.3       1 <0>        -0.4649
      3 O3         -2.0244    1.5491   -0.0030 O.2       1 <0>        -0.2456
      4 O4          2.0240   -1.5486   -0.0026 O.2       1 <0>        -0.2456
      5 C1         -0.5641   -0.3591   -0.0027 C.2       1 <0>         0.0292
      6 C2          0.5642    0.3601   -0.0024 C.2       1 <0>         0.0292
      7 C3         -1.8691    0.3381   -0.0026 C.2       1 <0>         0.3319
      8 C4          1.8690   -0.3376   -0.0020 C.2       1 <0>         0.3319
      9 C5         -4.1858   -0.1150    0.0022 C.3       1 <0>         0.0820
     10 C6          4.1859    0.1143    0.0021 C.3       1 <0>         0.0820
     11 H1         -0.5620   -1.4438   -0.0027 H         1 <0>         0.0691
     12 H2          0.5623    1.4448   -0.0023 H         1 <0>         0.0691
     13 H3         -4.3716    0.4787   -0.8980 H         1 <0>         0.0661
     14 H4         -4.3681    0.4798    0.9023 H         1 <0>         0.0661
     15 H5         -4.8652   -0.9717    0.0040 H         1 <0>         0.0661
     16 H6          4.3710   -0.4794   -0.8982 H         1 <0>         0.0661
     17 H7          4.3679   -0.4806    0.9022 H         1 <0>         0.0661
     18 H8          4.8656    0.9706    0.0038 H         1 <0>         0.0661
@<TRIPOS>BOND
     1    1    7 1
     2    1    9 1
     3    2    8 1
     4    2   10 1
     5    3    7 2
     6    4    8 2
     7    5    6 2
     8    5    7 1
     9    5   11 1
    10    6    8 1
    11    6   12 1
    12    9   13 1
    13    9   14 1
    14    9   15 1
    15   10   16 1
    16   10   17 1
    17   10   18 1
