@<TRIPOS>MOLECULE
DB08828
   41    43     0     0     0
SMALL
USER_CHARGES

@<TRIPOS>ATOM
      1 Cl1         3.0457   -2.3969   -2.1731 Cl        1 <0>        -0.0827
      2 Cl2        -5.6372   -2.5242    0.4978 Cl        1 <0>        -0.0829
      3 S1          6.2852    1.5617   -0.4343 S.o2      1 <0>        -0.0058
      4 O1          6.7569    1.4403   -1.8063 O.2       1 <0>        -0.1696
      5 O2          6.0950    2.8820    0.1506 O.2       1 <0>        -0.1696
      6 O3          1.1861   -2.7092    0.3139 O.2       1 <0>        -0.2698
      7 N1         -0.0286   -0.7265   -0.0349 N.am      1 <0>        -0.2814
      8 N2         -5.2094    0.5268   -1.3646 N.ar      1 <0>        -0.2549
      9 C1          4.7950    0.6620   -0.2962 C.ar      1 <0>         0.0893
     10 C2          2.4116   -0.7709   -0.0767 C.ar      1 <0>         0.0554
     11 C3          4.5286   -0.3872   -1.1759 C.ar      1 <0>        -0.0178
     12 C4          3.8699    0.9948    0.6933 C.ar      1 <0>        -0.0361
     13 C5         -1.3565   -1.1367    0.0890 C.ar      1 <0>         0.0344
     14 C6          3.3368   -1.1037   -1.0661 C.ar      1 <0>         0.0549
     15 C7          2.6783    0.2784    0.8029 C.ar      1 <0>        -0.0464
     16 C8         -3.7170   -0.6224    0.0639 C.ar      1 <0>         0.0204
     17 C9          1.1297   -1.5067    0.0800 C.2       1 <0>         0.2497
     18 C10        -2.3897   -0.2114   -0.0593 C.ar      1 <0>        -0.0299
     19 C11         7.4261    0.6897    0.6152 C.3       1 <0>         0.0596
     20 C12        -1.6504   -2.4729    0.3605 C.ar      1 <0>        -0.0391
     21 C13        -4.0108   -1.9587    0.3354 C.ar      1 <0>         0.0502
     22 C14        -4.7606    0.3720   -0.0989 C.ar      1 <0>         0.0724
     23 C15        -2.9775   -2.8840    0.4837 C.ar      1 <0>        -0.0410
     24 C16        -5.2365    1.0905    0.9863 C.ar      1 <0>        -0.0356
     25 C17        -6.2377    2.0277    0.7575 C.ar      1 <0>        -0.0583
     26 C18        -6.1827    1.4469   -1.5483 C.ar      1 <0>         0.0283
     27 C19        -6.7254    2.2154   -0.5312 C.ar      1 <0>        -0.0436
     28 H1          5.2491   -0.6561   -1.9445 H         1 <0>         0.0651
     29 H2          4.0605    1.8032    1.3935 H         1 <0>         0.0637
     30 H3          1.9719    0.5462    1.5847 H         1 <0>         0.0626
     31 H4         -2.1555    0.8303   -0.2719 H         1 <0>         0.0643
     32 H5          0.1021    0.2629   -0.2357 H         1 <0>         0.1551
     33 H6          7.5330   -0.3335    0.2503 H         1 <0>         0.0468
     34 H7          7.0465    0.6997    1.6387 H         1 <0>         0.0468
     35 H8          8.3887    1.2034    0.5698 H         1 <0>         0.0468
     36 H9         -0.9083   -3.2482    0.4884 H         1 <0>         0.0636
     37 H10        -3.1904   -3.9290    0.6954 H         1 <0>         0.0633
     38 H11        -4.8511    0.9382    1.9893 H         1 <0>         0.0639
     39 H12        -6.6375    2.6108    1.5817 H         1 <0>         0.0619
     40 H13        -6.5284    1.5550   -2.5711 H         1 <0>         0.0830
     41 H14        -7.5056    2.9403   -0.7328 H         1 <0>         0.0633
@<TRIPOS>BOND
     1    1   14 1
     2    2   21 1
     3    3    4 2
     4    3    5 2
     5    3    9 1
     6    3   19 1
     7    6   17 2
     8    7   13 1
     9    7   17 am
    10    7   32 1
    11    8   22 ar
    12    8   26 ar
    13    9   11 ar
    14    9   12 ar
    15   10   14 ar
    16   10   15 ar
    17   10   17 1
    18   11   14 ar
    19   11   28 1
    20   12   15 ar
    21   12   29 1
    22   13   18 ar
    23   13   20 ar
    24   15   30 1
    25   16   18 ar
    26   16   21 ar
    27   16   22 1
    28   18   31 1
    29   19   33 1
    30   19   34 1
    31   19   35 1
    32   20   23 ar
    33   20   36 1
    34   21   23 ar
    35   22   24 ar
    36   23   37 1
    37   24   25 ar
    38   24   38 1
    39   25   27 ar
    40   25   39 1
    41   26   27 ar
    42   26   40 1
    43   27   41 1
