@<TRIPOS>MOLECULE
DB08906
   66    70     0     0     0
SMALL
USER_CHARGES

@<TRIPOS>ATOM
      1 S1          3.1578    2.3577   -1.5587 S.3       1 <0>        -0.0505
      2 F1         -1.7656   -1.0051   -0.9881 F         1 <0>        -0.2377
      3 F2         -4.0721   -2.1073    2.5169 F         1 <0>        -0.2407
      4 F3          4.6185    4.1640   -2.7201 F         1 <0>        -0.2370
      5 O1          2.5490   -0.3163   -0.5716 O.3       1 <0>        -0.4430
      6 O2         -1.8131    2.5849   -0.9528 O.3       1 <0>        -0.3886
      7 O3          3.9962    2.1614    0.9386 O.2       1 <0>        -0.2808
      8 O4          4.7786   -0.1900   -0.0499 O.2       1 <0>        -0.2414
      9 O5         -6.2247   -2.7614   -1.8409 O.2       1 <0>        -0.2879
     10 O6          5.0652   -2.8175   -0.8781 O.3       1 <0>        -0.4564
     11 C1          0.7156    1.1548    0.2324 C.3       1 <0>         0.0216
     12 C2          0.0136   -0.0097    0.9640 C.3       1 <0>        -0.0251
     13 C3         -1.5135    0.1450    1.0507 C.3       1 <0>         0.0030
     14 C4         -2.1034    0.2061   -0.4000 C.3       1 <0>         0.1528
     15 C5          2.1946    0.6827    0.3765 C.3       1 <0>         0.1894
     16 C6          0.8158   -0.1621    2.2559 C.3       1 <0>        -0.0425
     17 C7          0.1597    1.2038   -1.2059 C.3       1 <0>        -0.0140
     18 C8          2.2757    0.1746    1.8488 C.3       1 <0>         0.0049
     19 C9         -1.3827    1.2719   -1.2811 C.3       1 <0>         0.0910
     20 C10        -3.6830    0.2447   -0.4047 C.3       1 <0>         0.0469
     21 C11        -2.1222   -1.0219    1.8469 C.3       1 <0>        -0.0117
     22 C12         0.5151    2.5267    0.9320 C.3       1 <0>        -0.0551
     23 C13        -3.6441   -0.9946    1.8513 C.3       1 <0>         0.1237
     24 C14        -4.1746   -0.9393    0.4404 C.2       1 <0>        -0.0198
     25 C15         3.2188   -1.0044    2.0705 C.3       1 <0>        -0.0583
     26 C16         3.2072    1.7508    0.0962 C.2       1 <0>         0.2359
     27 C17        -4.2797    1.5402    0.1911 C.3       1 <0>        -0.0492
     28 C18        -4.2025    0.1565   -1.8325 C.2       1 <0>        -0.0674
     29 C19        -4.9874   -1.8990   -0.0292 C.2       1 <0>        -0.0121
     30 C20        -5.0096   -0.7984   -2.3040 C.2       1 <0>        -0.0179
     31 C21         3.8187   -0.8271   -0.4714 C.2       1 <0>         0.3758
     32 C22        -5.4701   -1.8886   -1.4254 C.2       1 <0>         0.1788
     33 C23         4.4802    3.5838   -1.4981 C.3       1 <0>         0.1429
     34 C24         3.8687   -2.2157   -0.9311 C.2       1 <0>         0.2112
     35 C25         2.8902   -3.0111   -1.4103 C.2       1 <0>        -0.0093
     36 C26         3.5286   -4.2428   -1.6903 C.2       1 <0>        -0.0231
     37 C27         4.8505   -4.0739   -1.3494 C.2       1 <0>         0.0929
     38 H1          0.1974   -0.9345    0.3924 H         1 <0>         0.0311
     39 H2         -1.7576    1.0683    1.5854 H         1 <0>         0.0336
     40 H3          0.7190   -1.1717    2.6692 H         1 <0>         0.0272
     41 H4          0.4647    0.5402    3.0210 H         1 <0>         0.0272
     42 H5          0.4772    0.3130   -1.7617 H         1 <0>         0.0298
     43 H6          0.5334    2.0783   -1.7429 H         1 <0>         0.0298
     44 H7          2.6016    0.9769    2.5239 H         1 <0>         0.0342
     45 H8         -1.6359    1.0964   -2.3340 H         1 <0>         0.0626
     46 H9         -1.7792   -1.9825    1.4396 H         1 <0>         0.0300
     47 H10        -1.7714   -0.9991    2.8858 H         1 <0>         0.0300
     48 H11        -0.5353    2.7590    1.1187 H         1 <0>         0.0237
     49 H12         0.9135    3.3440    0.3213 H         1 <0>         0.0237
     50 H13         1.0163    2.5832    1.9031 H         1 <0>         0.0237
     51 H14        -4.0085   -0.1348    2.4227 H         1 <0>         0.0699
     52 H15         3.1095   -1.3093    3.1223 H         1 <0>         0.0234
     53 H16         4.2769   -0.7522    2.0064 H         1 <0>         0.0234
     54 H17         2.9404   -1.9040    1.5198 H         1 <0>         0.0234
     55 H18        -4.2157    2.3899   -0.4959 H         1 <0>         0.0242
     56 H19        -3.7932    1.8373    1.1249 H         1 <0>         0.0242
     57 H20        -5.3478    1.4149    0.4135 H         1 <0>         0.0242
     58 H21        -3.9159    0.9477   -2.5218 H         1 <0>         0.0583
     59 H22        -2.4215    2.8784   -1.6519 H         1 <0>         0.2099
     60 H23        -5.3118   -2.7294    0.5886 H         1 <0>         0.0656
     61 H24        -5.3521   -0.7910   -3.3323 H         1 <0>         0.0653
     62 H25         4.2471    4.3701   -0.7755 H         1 <0>         0.0736
     63 H26         5.4329    3.1146   -1.2393 H         1 <0>         0.0736
     64 H27         1.8463   -2.7698   -1.5514 H         1 <0>         0.0657
     65 H28         3.0814   -5.1412   -2.0901 H         1 <0>         0.0649
     66 H29         5.7185   -4.7161   -1.3802 H         1 <0>         0.1029
@<TRIPOS>BOND
     1    1   26 1
     2    1   33 1
     3    2   14 1
     4    3   23 1
     5    4   33 1
     6    5   15 1
     7    5   31 1
     8    6   19 1
     9    6   59 1
    10    7   26 2
    11    8   31 2
    12    9   32 2
    13   10   34 1
    14   10   37 1
    15   11   12 1
    16   11   15 1
    17   11   17 1
    18   11   22 1
    19   12   13 1
    20   12   16 1
    21   12   38 1
    22   13   14 1
    23   13   21 1
    24   13   39 1
    25   14   19 1
    26   14   20 1
    27   15   18 1
    28   15   26 1
    29   16   18 1
    30   16   40 1
    31   16   41 1
    32   17   19 1
    33   17   42 1
    34   17   43 1
    35   18   25 1
    36   18   44 1
    37   19   45 1
    38   20   24 1
    39   20   27 1
    40   20   28 1
    41   21   23 1
    42   21   46 1
    43   21   47 1
    44   22   48 1
    45   22   49 1
    46   22   50 1
    47   23   24 1
    48   23   51 1
    49   24   29 2
    50   25   52 1
    51   25   53 1
    52   25   54 1
    53   27   55 1
    54   27   56 1
    55   27   57 1
    56   28   30 2
    57   28   58 1
    58   29   32 1
    59   29   60 1
    60   30   32 1
    61   30   61 1
    62   31   34 1
    63   33   62 1
    64   33   63 1
    65   34   35 2
    66   35   36 1
    67   35   64 1
    68   36   37 2
    69   36   65 1
    70   37   66 1
