@<TRIPOS>MOLECULE
DB08819
   66    67     0     0     0
SMALL
USER_CHARGES

@<TRIPOS>ATOM
      1 F1         -1.4281    4.7768   -1.4450 F         1 <0>        -0.1972
      2 F2         -1.0885    4.8151    0.7033 F         1 <0>        -0.1972
      3 O1          3.6250   -0.5638   -0.0052 O.3       1 <0>        -0.3914
      4 O2          3.6057    2.6544   -1.5603 O.3       1 <0>        -0.3911
      5 O3         -2.5758    2.4656    1.0300 O.3       1 <0>        -0.4857
      6 O4          0.2917   -2.5334   -1.9662 O.3       1 <0>        -0.4619
      7 O5         -1.6349   -3.7387   -1.5682 O.2       1 <0>        -0.2508
      8 C1          2.1825    0.9755    1.2563 C.3       1 <0>        -0.0029
      9 C2          1.9495    1.8944    0.0461 C.3       1 <0>         0.0088
     10 C3          3.5962    0.4456    0.9969 C.3       1 <0>         0.0613
     11 C4          3.3143    2.5719   -0.1707 C.3       1 <0>         0.0641
     12 C5          4.3585    1.6828    0.5236 C.3       1 <0>         0.0001
     13 C6          1.1380   -0.1211    1.3943 C.3       1 <0>        -0.0290
     14 C7          0.8519    2.8908    0.2539 C.2       1 <0>        -0.0764
     15 C8          1.4460   -1.0220    2.5529 C.2       1 <0>        -0.0876
     16 C9         -0.2291    2.9847   -0.5339 C.2       1 <0>        -0.0163
     17 C10         1.0797   -2.3107    2.6145 C.2       1 <0>        -0.0879
     18 C11        -1.3331    3.9806   -0.3445 C.3       1 <0>         0.3004
     19 C12         0.3149   -3.0098    1.5283 C.3       1 <0>        -0.0343
     20 C13        -2.6731    3.2987   -0.1198 C.3       1 <0>         0.1563
     21 C14         1.2224   -3.6683    0.4808 C.3       1 <0>        -0.0395
     22 C15         0.4782   -4.4425   -0.6092 C.3       1 <0>         0.0452
     23 C16        -0.4315   -3.5605   -1.4328 C.2       1 <0>         0.3073
     24 C17        -3.3772    1.3553    1.0561 C.ar      1 <0>         0.1208
     25 C18        -0.4537   -1.5963   -2.7498 C.3       1 <0>         0.0975
     26 C19        -4.6093    1.3685    0.4023 C.ar      1 <0>        -0.0199
     27 C20        -2.9614    0.2109    1.7370 C.ar      1 <0>        -0.0199
     28 C21        -0.9909   -0.5002   -1.8425 C.3       1 <0>        -0.0280
     29 C22         0.4404   -1.0370   -3.8461 C.3       1 <0>        -0.0280
     30 C23        -5.4257    0.2378    0.4295 C.ar      1 <0>        -0.0583
     31 C24        -3.7778   -0.9198    1.7642 C.ar      1 <0>        -0.0583
     32 C25        -5.0100   -0.9062    1.1104 C.ar      1 <0>        -0.0615
     33 H1          2.1993    1.5832    2.1738 H         1 <0>         0.0335
     34 H2          1.7222    1.2828   -0.8381 H         1 <0>         0.0372
     35 H3          4.0494    0.0287    1.9024 H         1 <0>         0.0597
     36 H4          3.3505    3.5884    0.2388 H         1 <0>         0.0600
     37 H5          4.7428    2.2182    1.4002 H         1 <0>         0.0315
     38 H6          5.2010    1.4317   -0.1286 H         1 <0>         0.0315
     39 H7          0.1632    0.3441    1.5689 H         1 <0>         0.0311
     40 H8          1.0685   -0.6824    0.4590 H         1 <0>         0.0311
     41 H9          0.9482    3.5597    1.1057 H         1 <0>         0.0574
     42 H10         4.5546   -0.8148   -0.1404 H         1 <0>         0.2098
     43 H11         4.4822    3.0657   -1.6511 H         1 <0>         0.2098
     44 H12         1.9666   -0.5982    3.4083 H         1 <0>         0.0569
     45 H13        -0.3189    2.3311   -1.3960 H         1 <0>         0.0629
     46 H14         1.3444   -2.8914    3.4939 H         1 <0>         0.0569
     47 H15        -0.3920   -2.3238    1.0479 H         1 <0>         0.0307
     48 H16        -0.3084   -3.7804    1.9996 H         1 <0>         0.0307
     49 H17        -3.4433    4.0588    0.0547 H         1 <0>         0.0761
     50 H18        -2.9291    2.7356   -1.0274 H         1 <0>         0.0761
     51 H19         1.8988   -4.3680    0.9890 H         1 <0>         0.0273
     52 H20         1.8651   -2.9093    0.0189 H         1 <0>         0.0273
     53 H21         1.1866   -4.9302   -1.2878 H         1 <0>         0.0378
     54 H22        -0.1313   -5.2315   -0.1539 H         1 <0>         0.0378
     55 H23        -1.2949   -2.0954   -3.2473 H         1 <0>         0.0728
     56 H24        -4.9832    2.2473   -0.1148 H         1 <0>         0.0654
     57 H25        -2.0104    0.1962    2.2595 H         1 <0>         0.0654
     58 H26        -1.6396   -0.9183   -1.0662 H         1 <0>         0.0265
     59 H27        -1.5628    0.2410   -2.4087 H         1 <0>         0.0265
     60 H28        -0.1718    0.0046   -1.3294 H         1 <0>         0.0265
     61 H29         1.3173   -0.5391   -3.4176 H         1 <0>         0.0265
     62 H30        -0.0978   -0.3208   -4.4742 H         1 <0>         0.0265
     63 H31         0.8170   -1.8464   -4.4807 H         1 <0>         0.0265
     64 H32        -6.3881    0.2499   -0.0738 H         1 <0>         0.0619
     65 H33        -3.4546   -1.8099    2.2961 H         1 <0>         0.0619
     66 H34        -5.6463   -1.7860    1.1330 H         1 <0>         0.0618
@<TRIPOS>BOND
     1    1   18 1
     2    2   18 1
     3    3   10 1
     4    3   42 1
     5    4   11 1
     6    4   43 1
     7    5   20 1
     8    5   24 1
     9    6   23 1
    10    6   25 1
    11    7   23 2
    12    8    9 1
    13    8   10 1
    14    8   13 1
    15    8   33 1
    16    9   11 1
    17    9   14 1
    18    9   34 1
    19   10   12 1
    20   10   35 1
    21   11   12 1
    22   11   36 1
    23   12   37 1
    24   12   38 1
    25   13   15 1
    26   13   39 1
    27   13   40 1
    28   14   16 2
    29   14   41 1
    30   15   17 2
    31   15   44 1
    32   16   18 1
    33   16   45 1
    34   17   19 1
    35   17   46 1
    36   18   20 1
    37   19   21 1
    38   19   47 1
    39   19   48 1
    40   20   49 1
    41   20   50 1
    42   21   22 1
    43   21   51 1
    44   21   52 1
    45   22   23 1
    46   22   53 1
    47   22   54 1
    48   24   26 ar
    49   24   27 ar
    50   25   28 1
    51   25   29 1
    52   25   55 1
    53   26   30 ar
    54   26   56 1
    55   27   31 ar
    56   27   57 1
    57   28   58 1
    58   28   59 1
    59   28   60 1
    60   29   61 1
    61   29   62 1
    62   29   63 1
    63   30   32 ar
    64   30   64 1
    65   31   32 ar
    66   31   65 1
    67   32   66 1
