@<TRIPOS>MOLECULE
DB08329
   32    33     0     0     0
SMALL
USER_CHARGES

@<TRIPOS>ATOM
      1 S1          2.0768   -1.1943    0.9042 S.o2      1 <0>         0.0455
      2 S2         -4.7135   -0.4206    0.3115 S.o2      1 <0>         0.0559
      3 O1          2.1587   -0.5973    2.2237 O.2       1 <0>        -0.1550
      4 O2          1.5836   -2.5480    0.7352 O.2       1 <0>        -0.1550
      5 O3         -5.1724   -1.6148   -0.3844 O.2       1 <0>        -0.1533
      6 O4         -5.0767   -0.2121    1.7063 O.2       1 <0>        -0.1533
      7 N1          1.2342   -0.1289   -0.1648 N.pl3     1 <0>        -0.2074
      8 N2         -5.1807    0.9551   -0.5880 N.pl3     1 <0>        -0.2035
      9 C1          4.1659    0.3236   -0.0149 C.3       1 <0>        -0.0304
     10 C2          3.6896   -1.1119    0.1524 C.3       1 <0>         0.0850
     11 C3          3.2192    1.1453   -0.8893 C.3       1 <0>        -0.0340
     12 C4          1.8137    1.2400   -0.3013 C.3       1 <0>         0.0346
     13 C5         -0.2060   -0.1992   -0.0496 C.ar      1 <0>         0.0510
     14 C6         -0.8450    0.4390    1.0079 C.ar      1 <0>        -0.0372
     15 C7         -0.9395   -0.9049   -0.9974 C.ar      1 <0>        -0.0372
     16 C8         -2.9755   -0.3353    0.1719 C.ar      1 <0>         0.1051
     17 C9         -2.2338    0.3708    1.1192 C.ar      1 <0>        -0.0336
     18 C10        -2.3284   -0.9732   -0.8864 C.ar      1 <0>        -0.0336
     19 H1          4.2645    0.8034    0.9663 H         1 <0>         0.0282
     20 H2          5.1629    0.3196   -0.4702 H         1 <0>         0.0282
     21 H3          3.6298   -1.6248   -0.8131 H         1 <0>         0.0518
     22 H4          4.3730   -1.6723    0.7978 H         1 <0>         0.0518
     23 H5          3.6266    2.1560   -1.0075 H         1 <0>         0.0281
     24 H6          3.1715    0.6996   -1.8909 H         1 <0>         0.0281
     25 H7          1.8300    1.7475    0.6699 H         1 <0>         0.0482
     26 H8          1.1895    1.8357   -0.9781 H         1 <0>         0.0482
     27 H9         -0.2833    0.9922    1.7555 H         1 <0>         0.0637
     28 H10        -0.4426   -1.4034   -1.8253 H         1 <0>         0.0637
     29 H11        -2.7174    0.8798    1.9483 H         1 <0>         0.0638
     30 H12        -2.8862   -1.5231   -1.6390 H         1 <0>         0.0638
     31 H13        -5.5605    1.7569   -0.0701 H         1 <0>         0.1442
     32 H14        -5.6281    0.7993   -1.4995 H         1 <0>         0.1442
@<TRIPOS>BOND
     1    1    3 2
     2    1    4 2
     3    1    7 1
     4    1   10 1
     5    2    5 2
     6    2    6 2
     7    2    8 1
     8    2   16 1
     9    7   12 1
    10    7   13 1
    11    8   31 1
    12    8   32 1
    13    9   10 1
    14    9   11 1
    15    9   19 1
    16    9   20 1
    17   10   21 1
    18   10   22 1
    19   11   12 1
    20   11   23 1
    21   11   24 1
    22   12   25 1
    23   12   26 1
    24   13   14 ar
    25   13   15 ar
    26   14   17 ar
    27   14   27 1
    28   15   18 ar
    29   15   28 1
    30   16   17 ar
    31   16   18 ar
    32   17   29 1
    33   18   30 1
