@<TRIPOS>MOLECULE
DB08799
   39    41     0     0     0
SMALL
USER_CHARGES

@<TRIPOS>ATOM
      1 N1          0.1285   -0.1910   -0.0943 N.pl3     1 <0>        -0.3143
      2 N2          3.2409   -0.3047   -0.7189 N.pl3     1 <0>        -0.2324
      3 N3          2.5059   -2.2472    0.2115 N.2       1 <0>        -0.0823
      4 C1          0.8633   -0.9500   -1.0664 C.3       1 <0>         0.1152
      5 C2          2.2288   -1.1922   -0.5120 C.2       1 <0>         0.2984
      6 C3         -0.6379   -0.9080    0.9320 C.3       1 <0>         0.0378
      7 C4          4.4276   -0.7489   -0.0524 C.3       1 <0>         0.1195
      8 C5          0.1154    1.2149   -0.1102 C.ar      1 <0>         0.0305
      9 C6          3.9541   -2.0819    0.5464 C.3       1 <0>         0.1672
     10 C7         -2.0943   -1.0209    0.5678 C.ar      1 <0>        -0.0302
     11 C8          0.5768    1.9334    0.9954 C.ar      1 <0>        -0.0406
     12 C9         -0.3581    1.8997   -1.2320 C.ar      1 <0>        -0.0406
     13 C10        -2.9777   -0.0276    0.9669 C.ar      1 <0>        -0.0571
     14 C11        -2.5334   -2.1170   -0.1617 C.ar      1 <0>        -0.0571
     15 C12         0.5647    3.3281    0.9794 C.ar      1 <0>        -0.0600
     16 C13        -0.3701    3.2944   -1.2481 C.ar      1 <0>        -0.0600
     17 C14        -4.3272   -0.1323    0.6300 C.ar      1 <0>        -0.0615
     18 C15        -3.8829   -2.2217   -0.4988 C.ar      1 <0>        -0.0615
     19 C16         0.0913    4.0086   -0.1423 C.ar      1 <0>        -0.0616
     20 C17        -4.7798   -1.2294   -0.1029 C.ar      1 <0>        -0.0617
     21 H1          0.3859   -1.9158   -1.2667 H         1 <0>         0.0588
     22 H2          0.9499   -0.4321   -2.0282 H         1 <0>         0.0588
     23 H3         -0.5353   -0.4287    1.9141 H         1 <0>         0.0513
     24 H4         -0.2260   -1.9154    1.0785 H         1 <0>         0.0513
     25 H5          4.7310   -0.0456    0.7287 H         1 <0>         0.0765
     26 H6          5.2551   -0.8929   -0.7529 H         1 <0>         0.0765
     27 H7          4.5198   -2.9215    0.1287 H         1 <0>         0.0829
     28 H8          4.0815   -2.0900    1.6340 H         1 <0>         0.0829
     29 H9          3.1768    0.5650   -1.2336 H         1 <0>         0.2912
     30 H10         0.9610    1.4211    1.8736 H         1 <0>         0.0636
     31 H11        -0.7300    1.3592   -2.0987 H         1 <0>         0.0636
     32 H12        -2.6373    0.8305    1.5396 H         1 <0>         0.0621
     33 H13        -1.8448   -2.8967   -0.4744 H         1 <0>         0.0621
     34 H14         0.9265    3.8843    1.8392 H         1 <0>         0.0618
     35 H15        -0.7407    3.8244   -2.1206 H         1 <0>         0.0618
     36 H16        -5.0256    0.6402    0.9384 H         1 <0>         0.0618
     37 H17        -4.2354   -3.0760   -1.0692 H         1 <0>         0.0618
     38 H18         0.0819    5.0946   -0.1549 H         1 <0>         0.0618
     39 H19        -5.8305   -1.3111   -0.3653 H         1 <0>         0.0618
@<TRIPOS>BOND
     1    1    4 1
     2    1    6 1
     3    1    8 1
     4    2    5 1
     5    2    7 1
     6    2   29 1
     7    3    5 2
     8    3    9 1
     9    4    5 1
    10    4   21 1
    11    4   22 1
    12    6   10 1
    13    6   23 1
    14    6   24 1
    15    7    9 1
    16    7   25 1
    17    7   26 1
    18    8   11 ar
    19    8   12 ar
    20    9   27 1
    21    9   28 1
    22   10   13 ar
    23   10   14 ar
    24   11   15 ar
    25   11   30 1
    26   12   16 ar
    27   12   31 1
    28   13   17 ar
    29   13   32 1
    30   14   18 ar
    31   14   33 1
    32   15   19 ar
    33   15   34 1
    34   16   19 ar
    35   16   35 1
    36   17   20 ar
    37   17   36 1
    38   18   20 ar
    39   18   37 1
    40   19   38 1
    41   20   39 1
