@<TRIPOS>MOLECULE
DB08604
   24    25     0     0     0
SMALL
USER_CHARGES

@<TRIPOS>ATOM
      1 Cl1         2.1370   -1.8576   -2.3190 Cl        1 <0>        -0.0797
      2 Cl2        -4.8024   -1.0200    1.6292 Cl        1 <0>        -0.0834
      3 Cl3         5.1219    0.3322    1.5942 Cl        1 <0>        -0.0835
      4 O1          0.0823    0.1419   -1.4172 O.3       1 <0>        -0.4509
      5 O2         -1.9889    1.9941   -1.3427 O.3       1 <0>        -0.5032
      6 C1         -1.0542   -0.1182   -0.7126 C.ar      1 <0>         0.1697
      7 C2          1.2781    0.1693   -0.7205 C.ar      1 <0>         0.1469
      8 C3         -2.0938    0.8112   -0.6755 C.ar      1 <0>         0.1605
      9 C4         -1.1736   -1.3261   -0.0256 C.ar      1 <0>        -0.0143
     10 C5          2.3006   -0.7053   -1.0457 C.ar      1 <0>         0.0845
     11 C6          1.4141    1.0936    0.3018 C.ar      1 <0>        -0.0165
     12 C7         -3.2530    0.5325    0.0486 C.ar      1 <0>         0.0018
     13 C8         -2.3328   -1.6048    0.6984 C.ar      1 <0>        -0.0397
     14 C9          3.4952   -0.6548   -0.3270 C.ar      1 <0>        -0.0215
     15 C10         2.6085    1.1440    1.0202 C.ar      1 <0>        -0.0398
     16 C11        -3.3726   -0.6756    0.7356 C.ar      1 <0>         0.0447
     17 C12         3.6491    0.2699    0.7059 C.ar      1 <0>         0.0426
     18 H1         -0.3795   -2.0672   -0.0507 H         1 <0>         0.0656
     19 H2          0.6186    1.7893    0.5513 H         1 <0>         0.0655
     20 H3         -4.0634    1.2574    0.0771 H         1 <0>         0.0670
     21 H4         -2.4130   -2.5512    1.2273 H         1 <0>         0.0633
     22 H5          4.3076   -1.3361   -0.5712 H         1 <0>         0.0648
     23 H6          2.7153    1.8712    1.8210 H         1 <0>         0.0633
     24 H7         -2.8012    2.5104   -1.2030 H         1 <0>         0.2923
@<TRIPOS>BOND
     1    1   10 1
     2    2   16 1
     3    3   17 1
     4    4    6 1
     5    4    7 1
     6    5    8 1
     7    5   24 1
     8    6    8 ar
     9    6    9 ar
    10    7   10 ar
    11    7   11 ar
    12    8   12 ar
    13    9   13 ar
    14    9   18 1
    15   10   14 ar
    16   11   15 ar
    17   11   19 1
    18   12   16 ar
    19   12   20 1
    20   13   16 ar
    21   13   21 1
    22   14   17 ar
    23   14   22 1
    24   15   17 ar
    25   15   23 1
