@<TRIPOS>MOLECULE
DB08910
   31    33     0     0     0
SMALL
USER_CHARGES

@<TRIPOS>ATOM
      1 O1         -1.5367    0.2488   -2.4204 O.2       1 <0>        -0.2733
      2 O2          0.7480   -2.3171   -0.2302 O.2       1 <0>        -0.2694
      3 O3         -0.3589    2.1667    0.0954 O.2       1 <0>        -0.2695
      4 O4         -5.6341    0.4453   -0.3286 O.2       1 <0>        -0.2754
      5 N1         -0.2160   -0.1777   -0.0783 N.am      1 <0>        -0.2220
      6 N2         -3.5611    0.3616   -1.3324 N.am      1 <0>        -0.2548
      7 N3          3.7051   -2.1180   -0.1386 N.pl3     1 <0>        -0.3574
      8 C1         -1.6122   -0.5215   -0.1299 C.3       1 <0>         0.1109
      9 C2         -2.3469   -0.0296    1.1068 C.3       1 <0>        -0.0170
     10 C3         -3.8183   -0.3846    0.9934 C.3       1 <0>         0.0265
     11 C4         -2.1957    0.0846   -1.3937 C.2       1 <0>         0.2402
     12 C5          0.8030   -1.1052   -0.1311 C.2       1 <0>         0.2563
     13 C6          0.2507    1.1154    0.0296 C.2       1 <0>         0.2546
     14 C7          2.0429   -0.3349   -0.0387 C.ar      1 <0>         0.0700
     15 C8          1.7089    1.0079    0.0585 C.ar      1 <0>         0.0512
     16 C9         -4.4313    0.1936   -0.2598 C.2       1 <0>         0.2193
     17 C10         3.3547   -0.7626   -0.0405 C.ar      1 <0>         0.0375
     18 C11         2.6689    1.9936    0.1590 C.ar      1 <0>        -0.0488
     19 C12         4.3447    0.2189    0.0610 C.ar      1 <0>        -0.0403
     20 C13         4.0052    1.5836    0.1600 C.ar      1 <0>        -0.0593
     21 H1         -1.7145   -1.6104   -0.2171 H         1 <0>         0.0602
     22 H2         -2.2595    1.0563    1.2281 H         1 <0>         0.0293
     23 H3         -1.9222   -0.4857    2.0088 H         1 <0>         0.0293
     24 H4         -4.3600    0.0102    1.8598 H         1 <0>         0.0359
     25 H5         -3.9575   -1.4712    0.9703 H         1 <0>         0.0359
     26 H6         -3.9732    0.7399   -2.1810 H         1 <0>         0.1575
     27 H7          2.4081    3.0427    0.2345 H         1 <0>         0.0625
     28 H8          5.3965   -0.0593    0.0648 H         1 <0>         0.0636
     29 H9          4.7955    2.3259    0.2376 H         1 <0>         0.0618
     30 H10         4.6788   -2.3916   -0.1361 H         1 <0>         0.1423
     31 H11         2.9868   -2.8259   -0.2111 H         1 <0>         0.1423
@<TRIPOS>BOND
     1    1   11 2
     2    2   12 2
     3    3   13 2
     4    4   16 2
     5    5    8 1
     6    5   12 am
     7    5   13 am
     8    6   11 am
     9    6   16 am
    10    6   26 1
    11    7   17 1
    12    7   30 1
    13    7   31 1
    14    8    9 1
    15    8   11 1
    16    8   21 1
    17    9   10 1
    18    9   22 1
    19    9   23 1
    20   10   16 1
    21   10   24 1
    22   10   25 1
    23   12   14 1
    24   13   15 1
    25   14   15 ar
    26   14   17 ar
    27   15   18 ar
    28   17   19 ar
    29   18   20 ar
    30   18   27 1
    31   19   20 ar
    32   19   28 1
    33   20   29 1
