@<TRIPOS>MOLECULE
DB08912
   55    58     0     0     0
SMALL
USER_CHARGES

@<TRIPOS>ATOM
      1 S1          2.8732    1.2036    0.6757 S.3       1 <0>        -0.0694
      2 S2         -4.3161   -2.7224   -0.6539 S.o2      1 <0>         0.0779
      3 F1         -0.4030   -2.2544   -0.0295 F         1 <0>        -0.2028
      4 F2         -2.4846   -3.1780    1.6596 F         1 <0>        -0.2033
      5 F3         -5.4471    0.0097   -0.2455 F         1 <0>        -0.2033
      6 O1         -4.7468   -3.9726   -0.0565 O.2       1 <0>        -0.1498
      7 O2         -5.1833   -2.0361   -1.5923 O.2       1 <0>        -0.1498
      8 N1          2.1890   -0.8894   -0.6786 N.2       1 <0>        -0.2427
      9 N2         -2.7530   -2.9400   -1.3448 N.pl3     1 <0>        -0.2133
     10 N3          0.9131    3.4793   -0.3127 N.ar      1 <0>        -0.2141
     11 N4         -1.1090    4.5435    0.4525 N.ar      1 <0>        -0.2231
     12 N5          0.5697    5.7794   -0.6251 N.pl3     1 <0>        -0.3275
     13 C1          4.5250   -1.0287    0.2714 C.3       1 <0>         0.0109
     14 C2          3.1666   -0.3543    0.0185 C.2       1 <0>         0.0849
     15 C3          4.5537   -2.4120   -0.4141 C.3       1 <0>        -0.0541
     16 C4          4.7406   -1.2099    1.7896 C.3       1 <0>        -0.0541
     17 C5          5.7313   -0.2270   -0.2680 C.3       1 <0>        -0.0541
     18 C6          1.1240   -0.0102   -0.7015 C.2       1 <0>         0.0905
     19 C7          1.3076    1.1769   -0.0239 C.2       1 <0>         0.0653
     20 C8         -0.0876   -0.3416   -1.3993 C.ar      1 <0>         0.0386
     21 C9         -0.8227   -1.4695   -1.0344 C.ar      1 <0>         0.1548
     22 C10         0.4348    2.3113    0.1645 C.ar      1 <0>         0.0847
     23 C11        -1.9982   -1.7862   -1.7153 C.ar      1 <0>         0.0838
     24 C12        -0.5279    0.4696   -2.4452 C.ar      1 <0>        -0.0497
     25 C13        -2.4385   -0.9750   -2.7612 C.ar      1 <0>        -0.0365
     26 C14        -1.7033    0.1527   -3.1262 C.ar      1 <0>        -0.0592
     27 C15        -0.7887    2.1818    0.7894 C.ar      1 <0>        -0.0168
     28 C16        -3.9731   -1.6082    0.6781 C.ar      1 <0>         0.1784
     29 C17        -3.0853   -1.9801    1.6876 C.ar      1 <0>         0.1527
     30 C18        -4.5914   -0.3584    0.7185 C.ar      1 <0>         0.1527
     31 C19        -1.5251    3.3431    0.9063 C.ar      1 <0>         0.0332
     32 C20         0.1014    4.5395   -0.1378 C.ar      1 <0>         0.2131
     33 C21        -2.8157   -1.1022    2.7375 C.ar      1 <0>        -0.0243
     34 C22        -4.3218    0.5195    1.7685 C.ar      1 <0>        -0.0243
     35 C23        -3.4337    0.1476    2.7779 C.ar      1 <0>        -0.0562
     36 H1          5.5041   -2.9273   -0.2333 H         1 <0>         0.0239
     37 H2          3.7528   -3.0593   -0.0375 H         1 <0>         0.0239
     38 H3          4.4252   -2.3222   -1.4993 H         1 <0>         0.0239
     39 H4          5.6527   -1.7841    1.9911 H         1 <0>         0.0239
     40 H5          4.8402   -0.2533    2.3143 H         1 <0>         0.0239
     41 H6          3.9032   -1.7521    2.2447 H         1 <0>         0.0239
     42 H7          6.6723   -0.7679   -0.1149 H         1 <0>         0.0239
     43 H8          5.6230   -0.0371   -1.3423 H         1 <0>         0.0239
     44 H9          5.8287    0.7460    0.2261 H         1 <0>         0.0239
     45 H10         0.0344    1.3474   -2.7551 H         1 <0>         0.0625
     46 H11        -2.1928   -3.7025   -0.9410 H         1 <0>         0.1738
     47 H12        -3.3417   -1.2142   -3.3153 H         1 <0>         0.0637
     48 H13        -2.0428    0.7808   -3.9445 H         1 <0>         0.0618
     49 H14        -1.1559    1.2391    1.1715 H         1 <0>         0.0654
     50 H15        -2.4989    3.3410    1.3842 H         1 <0>         0.0831
     51 H16        -2.1230   -1.3914    3.5224 H         1 <0>         0.0647
     52 H17        -4.8020    1.4929    1.7991 H         1 <0>         0.0647
     53 H18        -3.2222    0.8320    3.5942 H         1 <0>         0.0619
     54 H19        -0.0040    6.6043   -0.5175 H         1 <0>         0.1452
     55 H20         1.4727    5.8268   -1.0764 H         1 <0>         0.1452
@<TRIPOS>BOND
     1    1   14 1
     2    1   19 1
     3    2    6 2
     4    2    7 2
     5    2    9 1
     6    2   28 1
     7    3   21 1
     8    4   29 1
     9    5   30 1
    10    8   14 2
    11    8   18 1
    12    9   23 1
    13    9   46 1
    14   10   22 ar
    15   10   32 ar
    16   11   31 ar
    17   11   32 ar
    18   12   32 1
    19   12   54 1
    20   12   55 1
    21   13   14 1
    22   13   15 1
    23   13   16 1
    24   13   17 1
    25   15   36 1
    26   15   37 1
    27   15   38 1
    28   16   39 1
    29   16   40 1
    30   16   41 1
    31   17   42 1
    32   17   43 1
    33   17   44 1
    34   18   19 2
    35   18   20 1
    36   19   22 1
    37   20   21 ar
    38   20   24 ar
    39   21   23 ar
    40   22   27 ar
    41   23   25 ar
    42   24   26 ar
    43   24   45 1
    44   25   26 ar
    45   25   47 1
    46   26   48 1
    47   27   31 ar
    48   27   49 1
    49   28   29 ar
    50   28   30 ar
    51   29   33 ar
    52   30   34 ar
    53   31   50 1
    54   33   35 ar
    55   33   51 1
    56   34   35 ar
    57   34   52 1
    58   35   53 1
