@<TRIPOS>MOLECULE
DB08804
   75    78     0     0     0
SMALL
USER_CHARGES

@<TRIPOS>ATOM
      1 O1          0.1367    3.8679    0.1994 O.3       1 <0>        -0.4608
      2 O2         -5.8844   -5.0897    1.3103 O.2       1 <0>        -0.2927
      3 O3          0.4160    3.5254    2.4663 O.2       1 <0>        -0.2508
      4 C1         -2.7708    1.7262   -0.3025 C.3       1 <0>        -0.0290
      5 C2         -1.2599    1.8480   -0.0227 C.3       1 <0>         0.0081
      6 C3         -3.1793    0.3065   -0.6990 C.3       1 <0>        -0.0339
      7 C4         -2.8260   -0.6610    0.4693 C.3       1 <0>        -0.0314
      8 C5         -0.9219    0.9441    1.1693 C.3       1 <0>        -0.0437
      9 C6         -1.1811    3.3587    0.2695 C.3       1 <0>         0.1087
     10 C7         -3.0488    2.8780   -1.2645 C.3       1 <0>        -0.0460
     11 C8         -1.3488   -0.5132    0.9172 C.3       1 <0>        -0.0488
     12 C9         -3.1969   -2.1327    0.1109 C.3       1 <0>        -0.0160
     13 C10        -2.0964    3.9932   -0.7959 C.3       1 <0>        -0.0149
     14 C11        -4.6749    0.2087   -1.0229 C.3       1 <0>        -0.0460
     15 C12        -0.3472    1.4823   -1.2208 C.3       1 <0>        -0.0559
     16 C13        -5.0468   -1.2136   -1.4267 C.3       1 <0>        -0.0308
     17 C14        -4.6310   -2.2309   -0.3932 C.2       1 <0>        -0.0629
     18 C15        -2.9498   -3.0599    1.3191 C.3       1 <0>        -0.0392
     19 C16        -3.5866   -4.4275    1.1461 C.3       1 <0>         0.0104
     20 C17        -5.4989   -3.1774   -0.0015 C.2       1 <0>        -0.0197
     21 C18        -5.0627   -4.2823    0.8828 C.2       1 <0>         0.1561
     22 C19         0.8358    3.8980    1.3783 C.2       1 <0>         0.3074
     23 C20         2.2089    4.4815    1.1651 C.3       1 <0>         0.0449
     24 C21         3.0198    3.6151    0.2091 C.3       1 <0>        -0.0430
     25 C22         3.2269    2.2090    0.7720 C.3       1 <0>        -0.0526
     26 C23         4.0691    1.3497   -0.1725 C.3       1 <0>        -0.0530
     27 C24         4.2478   -0.0681    0.3752 C.3       1 <0>        -0.0531
     28 C25         5.0635   -0.9345   -0.5869 C.3       1 <0>        -0.0531
     29 C26         5.2474   -2.3755   -0.1022 C.3       1 <0>        -0.0533
     30 C27         6.0411   -3.2479   -1.0753 C.3       1 <0>        -0.0559
     31 C28         6.2576   -4.6458   -0.5160 C.3       1 <0>        -0.0653
     32 H1         -3.3184    1.9660    0.6246 H         1 <0>         0.0310
     33 H2         -2.6274    0.0022   -1.5969 H         1 <0>         0.0307
     34 H3         -3.4429   -0.3658    1.3325 H         1 <0>         0.0309
     35 H4         -1.4361    1.3033    2.0702 H         1 <0>         0.0272
     36 H5          0.1490    0.9684    1.3933 H         1 <0>         0.0272
     37 H6         -1.6301    3.5833    1.2477 H         1 <0>         0.0739
     38 H7         -4.0931    3.2040   -1.2231 H         1 <0>         0.0269
     39 H8         -2.8291    2.5984   -2.3008 H         1 <0>         0.0269
     40 H9         -1.1836   -1.0686    1.8474 H         1 <0>         0.0268
     41 H10        -0.6906   -0.9682    0.1679 H         1 <0>         0.0268
     42 H11        -2.5463   -2.4637   -0.7110 H         1 <0>         0.0349
     43 H12        -1.5255    4.3971   -1.6396 H         1 <0>         0.0301
     44 H13        -2.6566    4.8298   -0.3631 H         1 <0>         0.0301
     45 H14        -4.9306    0.8858   -1.8461 H         1 <0>         0.0271
     46 H15        -5.2727    0.5186   -0.1561 H         1 <0>         0.0271
     47 H16        -0.4887    0.4531   -1.5610 H         1 <0>         0.0236
     48 H17         0.7090    1.5807   -0.9499 H         1 <0>         0.0236
     49 H18        -0.5165    2.1289   -2.0875 H         1 <0>         0.0236
     50 H19        -4.5511   -1.4620   -2.3741 H         1 <0>         0.0310
     51 H20        -6.1259   -1.2561   -1.6186 H         1 <0>         0.0310
     52 H21        -1.8738   -3.1945    1.4774 H         1 <0>         0.0275
     53 H22        -3.3520   -2.5957    2.2297 H         1 <0>         0.0275
     54 H23        -3.1343   -4.9761    0.3130 H         1 <0>         0.0345
     55 H24        -3.4478   -5.0128    2.0614 H         1 <0>         0.0345
     56 H25        -6.5192   -3.2128   -0.3675 H         1 <0>         0.0652
     57 H26         2.7112    4.5585    2.1360 H         1 <0>         0.0377
     58 H27         2.0979    5.4989    0.7751 H         1 <0>         0.0377
     59 H28         3.9940    4.0905    0.0434 H         1 <0>         0.0270
     60 H29         2.5256    3.5542   -0.7678 H         1 <0>         0.0270
     61 H30         2.2656    1.7146    0.9366 H         1 <0>         0.0265
     62 H31         3.7256    2.2732    1.7470 H         1 <0>         0.0265
     63 H32         5.0512    1.8154   -0.3180 H         1 <0>         0.0265
     64 H33         3.5836    1.3039   -1.1551 H         1 <0>         0.0265
     65 H34         4.7495   -0.0286    1.3495 H         1 <0>         0.0265
     66 H35         3.2649   -0.5277    0.5351 H         1 <0>         0.0265
     67 H36         4.5693   -0.9498   -1.5663 H         1 <0>         0.0265
     68 H37         6.0498   -0.4782   -0.7375 H         1 <0>         0.0265
     69 H38         5.7568   -2.3597    0.8695 H         1 <0>         0.0265
     70 H39         4.2618   -2.8275    0.0653 H         1 <0>         0.0265
     71 H40         5.5092   -3.3160   -2.0311 H         1 <0>         0.0263
     72 H41         7.0149   -2.7871   -1.2772 H         1 <0>         0.0263
     73 H42         5.3017   -5.1451   -0.3276 H         1 <0>         0.0230
     74 H43         6.8245   -5.2546   -1.2273 H         1 <0>         0.0230
     75 H44         6.8184   -4.6106    0.4234 H         1 <0>         0.0230
@<TRIPOS>BOND
     1    1    9 1
     2    1   22 1
     3    2   21 2
     4    3   22 2
     5    4    5 1
     6    4    6 1
     7    4   10 1
     8    4   32 1
     9    5    8 1
    10    5    9 1
    11    5   15 1
    12    6    7 1
    13    6   14 1
    14    6   33 1
    15    7   11 1
    16    7   12 1
    17    7   34 1
    18    8   11 1
    19    8   35 1
    20    8   36 1
    21    9   13 1
    22    9   37 1
    23   10   13 1
    24   10   38 1
    25   10   39 1
    26   11   40 1
    27   11   41 1
    28   12   17 1
    29   12   18 1
    30   12   42 1
    31   13   43 1
    32   13   44 1
    33   14   16 1
    34   14   45 1
    35   14   46 1
    36   15   47 1
    37   15   48 1
    38   15   49 1
    39   16   17 1
    40   16   50 1
    41   16   51 1
    42   17   20 2
    43   18   19 1
    44   18   52 1
    45   18   53 1
    46   19   21 1
    47   19   54 1
    48   19   55 1
    49   20   21 1
    50   20   56 1
    51   22   23 1
    52   23   24 1
    53   23   57 1
    54   23   58 1
    55   24   25 1
    56   24   59 1
    57   24   60 1
    58   25   26 1
    59   25   61 1
    60   25   62 1
    61   26   27 1
    62   26   63 1
    63   26   64 1
    64   27   28 1
    65   27   65 1
    66   27   66 1
    67   28   29 1
    68   28   67 1
    69   28   68 1
    70   29   30 1
    71   29   69 1
    72   29   70 1
    73   30   31 1
    74   30   71 1
    75   30   72 1
    76   31   73 1
    77   31   74 1
    78   31   75 1
