@<TRIPOS>MOLECULE
DB08901
   66    70     0     0     0
SMALL
USER_CHARGES

@<TRIPOS>ATOM
      1 F1          4.2729   -3.7569   -0.5141 F         1 <0>        -0.1659
      2 F2          5.3012   -2.7615   -2.1438 F         1 <0>        -0.1659
      3 F3          5.7535   -2.2229   -0.0861 F         1 <0>        -0.1659
      4 O1         -1.1165    0.8276   -0.4647 O.2       1 <0>        -0.2699
      5 N1          6.2410    0.3662   -0.6159 N.3       1 <0>        -0.2957
      6 N2          8.3265    1.7167    0.8623 N.3       1 <0>        -0.3029
      7 N3          0.0621   -1.1914   -0.2140 N.am      1 <0>        -0.2815
      8 N4         -9.0795    1.2444   -0.2765 N.ar      1 <0>        -0.2049
      9 N5        -10.1779    0.7064   -2.1414 N.2       1 <0>        -0.2334
     10 N6         -8.7792    1.8430    0.9104 N.ar      1 <0>        -0.1723
     11 C1          5.9898    1.6438    0.0620 C.3       1 <0>         0.0120
     12 C2          7.6481    0.2709   -1.0236 C.3       1 <0>         0.0120
     13 C3          6.9193    1.8124    1.2691 C.3       1 <0>         0.0114
     14 C4          8.5783    0.4401    0.1826 C.3       1 <0>         0.0114
     15 C5          5.3550    0.2065   -1.7672 C.3       1 <0>         0.0247
     16 C6          3.9605   -0.1810   -1.3523 C.ar      1 <0>        -0.0216
     17 C7          9.2117    1.8747    2.0146 C.3       1 <0>        -0.0127
     18 C8          3.6663   -1.4847   -0.9532 C.ar      1 <0>         0.0609
     19 C9          2.9555    0.7860   -1.3720 C.ar      1 <0>        -0.0551
     20 C10         2.3670   -1.8214   -0.5732 C.ar      1 <0>        -0.0285
     21 C11         1.6562    0.4493   -0.9922 C.ar      1 <0>        -0.0401
     22 C12         1.3619   -0.8543   -0.5927 C.ar      1 <0>         0.0342
     23 C13         4.7259   -2.5369   -0.9265 C.3       1 <0>         0.4178
     24 C14        -1.0666   -0.3622   -0.1719 C.2       1 <0>         0.2483
     25 C15        -2.3161   -1.0105    0.3057 C.ar      1 <0>         0.0382
     26 C16        -3.5564   -0.5293   -0.1132 C.ar      1 <0>        -0.0339
     27 C17        -2.2477   -2.1014    1.1724 C.ar      1 <0>        -0.0493
     28 C18        -4.7286   -1.1390    0.3343 C.ar      1 <0>         0.0289
     29 C19        -4.6602   -2.2297    1.2010 C.ar      1 <0>        -0.0350
     30 C20        -3.4198   -2.7108    1.6201 C.ar      1 <0>        -0.0570
     31 C21        -5.8951   -2.9085    1.7011 C.3       1 <0>        -0.0386
     32 C22        -5.9892   -0.6263   -0.1089 C.1       1 <0>        -0.0592
     33 C23        -8.3071    0.3166   -0.9242 C.cat     1 <0>         0.1356
     34 C24       -10.2063    1.4498   -1.0538 C.ar      1 <0>         0.1554
     35 C25        -7.0474   -0.1959   -0.4810 C.1       1 <0>        -0.0395
     36 C26        -9.0036    0.0020   -2.0663 C.2       1 <0>         0.0639
     37 C27       -11.1598    2.3798   -0.5772 C.ar      1 <0>        -0.0159
     38 C28       -10.9422    3.0131    0.5812 C.ar      1 <0>        -0.0384
     39 C29        -9.6866    2.6845    1.2977 C.ar      1 <0>         0.0485
     40 H1          4.9613    1.6894    0.4366 H         1 <0>         0.0439
     41 H2          6.1263    2.4895   -0.6258 H         1 <0>         0.0439
     42 H3          7.8865    1.0260   -1.7848 H         1 <0>         0.0439
     43 H4          7.8412   -0.7136   -1.4673 H         1 <0>         0.0439
     44 H5          6.6785    1.0560    2.0285 H         1 <0>         0.0439
     45 H6          6.7291    2.7957    1.7161 H         1 <0>         0.0439
     46 H7          9.6148    0.4083   -0.1744 H         1 <0>         0.0439
     47 H8          8.4441   -0.4042    0.8726 H         1 <0>         0.0439
     48 H9          5.7337   -0.5591   -2.4549 H         1 <0>         0.0476
     49 H10         5.3342    1.1204   -2.3780 H         1 <0>         0.0476
     50 H11         9.0574    1.0928    2.7668 H         1 <0>         0.0391
     51 H12        10.2608    1.8478    1.6997 H         1 <0>         0.0391
     52 H13         9.0517    2.8481    2.4914 H         1 <0>         0.0391
     53 H14         3.1702    1.8061   -1.6801 H         1 <0>         0.0621
     54 H15         2.1301   -2.8358   -0.2608 H         1 <0>         0.0642
     55 H16         0.9349    1.2530   -1.0340 H         1 <0>         0.0636
     56 H17        -0.0564   -2.1730    0.0208 H         1 <0>         0.1551
     57 H18        -3.6134    0.3181   -0.7936 H         1 <0>         0.0637
     58 H19        -1.3071   -2.4865    1.5540 H         1 <0>         0.0625
     59 H20        -3.3482   -3.5545    2.3015 H         1 <0>         0.0621
     60 H21        -6.5170   -2.2069    2.2672 H         1 <0>         0.0278
     61 H22        -6.4746   -3.3163    0.8661 H         1 <0>         0.0278
     62 H23        -5.6591   -3.7438    2.3695 H         1 <0>         0.0278
     63 H24        -8.7230   -0.6957   -2.8429 H         1 <0>         0.0859
     64 H25       -12.0571    2.5709   -1.1548 H         1 <0>         0.0655
     65 H26       -11.6269    3.7351    1.0044 H         1 <0>         0.0634
     66 H27        -9.5386    3.2231    2.2478 H         1 <0>         0.0847
@<TRIPOS>BOND
     1    1   23 1
     2    2   23 1
     3    3   23 1
     4    4   24 2
     5    5   11 1
     6    5   12 1
     7    5   15 1
     8    6   13 1
     9    6   14 1
    10    6   17 1
    11    7   22 1
    12    7   24 am
    13    7   56 1
    14    8   10 ar
    15    8   33 1
    16    8   34 ar
    17    9   34 1
    18    9   36 2
    19   10   39 ar
    20   11   13 1
    21   11   40 1
    22   11   41 1
    23   12   14 1
    24   12   42 1
    25   12   43 1
    26   13   44 1
    27   13   45 1
    28   14   46 1
    29   14   47 1
    30   15   16 1
    31   15   48 1
    32   15   49 1
    33   16   18 ar
    34   16   19 ar
    35   17   50 1
    36   17   51 1
    37   17   52 1
    38   18   20 ar
    39   18   23 1
    40   19   21 ar
    41   19   53 1
    42   20   22 ar
    43   20   54 1
    44   21   22 ar
    45   21   55 1
    46   24   25 1
    47   25   26 ar
    48   25   27 ar
    49   26   28 ar
    50   26   57 1
    51   27   30 ar
    52   27   58 1
    53   28   29 ar
    54   28   32 1
    55   29   30 ar
    56   29   31 1
    57   30   59 1
    58   31   60 1
    59   31   61 1
    60   31   62 1
    61   32   35 3
    62   33   35 1
    63   33   36 1
    64   34   37 ar
    65   36   63 1
    66   37   38 ar
    67   37   64 1
    68   38   39 ar
    69   38   65 1
    70   39   66 1
