@<TRIPOS>MOLECULE
DB08958
   69    69     0     0     0
SMALL
USER_CHARGES

@<TRIPOS>ATOM
      1 N1          1.0576    1.2966    0.0880 N.3       1 <0>        -0.2875
      2 N2         -1.3636    1.0797   -0.1130 N.3       1 <0>        -0.2875
      3 N3         -0.1920    3.8242   -2.3818 N.3       1 <0>        -0.3228
      4 C1         -0.1299    2.5146   -1.7187 C.3       1 <0>         0.0394
      5 C2          1.0571    2.5210   -0.7296 C.3       1 <0>         0.0191
      6 C3         -1.4453    2.2967   -0.9379 C.3       1 <0>         0.0191
      7 C4         -0.2192    1.1618    0.8125 C.3       1 <0>         0.0520
      8 C5          2.1833    1.3030    1.0216 C.3       1 <0>         0.0030
      9 C6         -2.6102    0.8739    0.6235 C.3       1 <0>         0.0030
     10 C7          2.5126   -0.0917    1.5957 C.3       1 <0>        -0.0285
     11 C8         -3.7462    0.2902   -0.2435 C.3       1 <0>        -0.0285
     12 C9          0.0570    1.4347   -2.8024 C.3       1 <0>        -0.0446
     13 C10         2.8245   -1.1490    0.5086 C.3       1 <0>        -0.0491
     14 C11        -3.3818   -1.0571   -0.9134 C.3       1 <0>        -0.0491
     15 C12         3.6796   -0.0682    2.6118 C.3       1 <0>        -0.0519
     16 C13        -5.0718    0.1127    0.5351 C.3       1 <0>        -0.0519
     17 C14         4.0667   -0.8903   -0.3522 C.3       1 <0>        -0.0530
     18 C15        -3.1073   -2.2322    0.0325 C.3       1 <0>        -0.0530
     19 C16         3.4957    0.9370    3.7404 C.3       1 <0>        -0.0650
     20 C17        -5.5447    1.3736    1.2451 C.3       1 <0>        -0.0650
     21 C18         4.2654   -1.9229   -1.4620 C.3       1 <0>        -0.0559
     22 C19        -2.6666   -3.5059   -0.6894 C.3       1 <0>        -0.0559
     23 C20         5.5613   -1.6790   -2.2202 C.3       1 <0>        -0.0653
     24 C21        -2.5048   -4.6654    0.2819 C.3       1 <0>        -0.0653
     25 H1          1.9977    2.5909   -1.2922 H         1 <0>         0.0445
     26 H2          1.0054    3.4051   -0.0777 H         1 <0>         0.0445
     27 H3         -1.6518    3.1695   -0.3013 H         1 <0>         0.0445
     28 H4         -2.2707    2.2229   -1.6558 H         1 <0>         0.0445
     29 H5         -0.3571    1.9871    1.5255 H         1 <0>         0.0595
     30 H6         -0.2039    0.2298    1.3861 H         1 <0>         0.0595
     31 H7          3.0848    1.6766    0.5194 H         1 <0>         0.0430
     32 H8          1.9804    2.0150    1.8308 H         1 <0>         0.0430
     33 H9         -2.4458    0.1806    1.4583 H         1 <0>         0.0430
     34 H10        -2.9217    1.8178    1.0870 H         1 <0>         0.0430
     35 H11         1.6400   -0.4556    2.1524 H         1 <0>         0.0313
     36 H12        -3.9616    0.9997   -1.0528 H         1 <0>         0.0313
     37 H13        -0.7736    1.4468   -3.5180 H         1 <0>         0.0248
     38 H14         0.9829    1.5966   -3.3669 H         1 <0>         0.0248
     39 H15         0.1066    0.4264   -2.3776 H         1 <0>         0.0248
     40 H16         1.9527   -1.2507   -0.1501 H         1 <0>         0.0268
     41 H17         2.9389   -2.1267    0.9957 H         1 <0>         0.0268
     42 H18        -4.1980   -1.3418   -1.5910 H         1 <0>         0.0268
     43 H19        -2.5054   -0.9092   -1.5571 H         1 <0>         0.0268
     44 H20        -0.2920    4.5629   -1.6864 H         1 <0>         0.1188
     45 H21         0.6859    4.0085   -2.8662 H         1 <0>         0.1188
     46 H22         3.7976   -1.0681    3.0470 H         1 <0>         0.0266
     47 H23         4.6233    0.1771    2.1135 H         1 <0>         0.0266
     48 H24        -5.8553   -0.2148   -0.1594 H         1 <0>         0.0266
     49 H25        -4.9732   -0.6675    1.2969 H         1 <0>         0.0266
     50 H26         4.9608   -0.8931    0.2803 H         1 <0>         0.0265
     51 H27         4.0019    0.1024   -0.8110 H         1 <0>         0.0265
     52 H28        -4.0107   -2.4614    0.6077 H         1 <0>         0.0265
     53 H29        -2.3298   -1.9567    0.7534 H         1 <0>         0.0265
     54 H30         3.5810    1.9671    3.3825 H         1 <0>         0.0230
     55 H31         4.2725    0.7921    4.4985 H         1 <0>         0.0230
     56 H32         2.5229    0.8116    4.2257 H         1 <0>         0.0230
     57 H33        -4.9009    1.6264    2.0925 H         1 <0>         0.0230
     58 H34        -6.5549    1.2222    1.6398 H         1 <0>         0.0230
     59 H35        -5.5746    2.2253    0.5586 H         1 <0>         0.0230
     60 H36         3.4211   -1.8844   -2.1598 H         1 <0>         0.0263
     61 H37         4.2861   -2.9309   -1.0318 H         1 <0>         0.0263
     62 H38        -1.7173   -3.3287   -1.2077 H         1 <0>         0.0263
     63 H39        -3.4075   -3.7766   -1.4504 H         1 <0>         0.0263
     64 H40         6.4265   -1.7487   -1.5531 H         1 <0>         0.0230
     65 H41         5.6825   -2.4247   -3.0120 H         1 <0>         0.0230
     66 H42         5.5634   -0.6875   -2.6841 H         1 <0>         0.0230
     67 H43        -3.4494   -4.8893    0.7879 H         1 <0>         0.0230
     68 H44        -2.1849   -5.5652   -0.2529 H         1 <0>         0.0230
     69 H45        -1.7522   -4.4370    1.0432 H         1 <0>         0.0230
@<TRIPOS>BOND
     1    1    5 1
     2    1    7 1
     3    1    8 1
     4    2    6 1
     5    2    7 1
     6    2    9 1
     7    3    4 1
     8    3   44 1
     9    3   45 1
    10    4    5 1
    11    4    6 1
    12    4   12 1
    13    5   25 1
    14    5   26 1
    15    6   27 1
    16    6   28 1
    17    7   29 1
    18    7   30 1
    19    8   10 1
    20    8   31 1
    21    8   32 1
    22    9   11 1
    23    9   33 1
    24    9   34 1
    25   10   13 1
    26   10   15 1
    27   10   35 1
    28   11   14 1
    29   11   16 1
    30   11   36 1
    31   12   37 1
    32   12   38 1
    33   12   39 1
    34   13   17 1
    35   13   40 1
    36   13   41 1
    37   14   18 1
    38   14   42 1
    39   14   43 1
    40   15   19 1
    41   15   46 1
    42   15   47 1
    43   16   20 1
    44   16   48 1
    45   16   49 1
    46   17   21 1
    47   17   50 1
    48   17   51 1
    49   18   22 1
    50   18   52 1
    51   18   53 1
    52   19   54 1
    53   19   55 1
    54   19   56 1
    55   20   57 1
    56   20   58 1
    57   20   59 1
    58   21   23 1
    59   21   60 1
    60   21   61 1
    61   22   24 1
    62   22   62 1
    63   22   63 1
    64   23   64 1
    65   23   65 1
    66   23   66 1
    67   24   67 1
    68   24   68 1
    69   24   69 1
