@<TRIPOS>MOLECULE
DB08965
  102   102     0     0     0
SMALL
USER_CHARGES

@<TRIPOS>ATOM
      1 O1         -2.9420    1.3477    0.6225 O.3       1 <0>        -0.4503
      2 O2          2.2276    1.3032    0.3984 O.3       1 <0>        -0.4503
      3 O3          0.0206   -2.6250   -1.0327 O.3       1 <0>        -0.4503
      4 O4         -1.0505    1.5545   -1.1376 O.2       1 <0>        -0.2715
      5 O5         -2.4749   -0.8779   -1.9910 O.2       1 <0>        -0.2715
      6 O6          3.8558   -1.1786   -0.9028 O.2       1 <0>        -0.2715
      7 O7         -1.7834   -0.1327    1.9585 O.2       1 <0>        -0.2487
      8 O8          3.1678    1.5968   -1.6826 O.2       1 <0>        -0.2487
      9 O9          0.7036   -4.8019   -1.2989 O.2       1 <0>        -0.2487
     10 N1          0.2864    3.0384    0.0287 N.am      1 <0>        -0.2878
     11 N2         -2.7296   -1.9927    0.0286 N.am      1 <0>        -0.2878
     12 N3          2.1248   -1.9092    0.4688 N.am      1 <0>        -0.2878
     13 C1          1.3066    2.9897   -1.0411 C.3       1 <0>         0.1250
     14 C2         -3.6017   -0.9161    0.5430 C.3       1 <0>         0.1250
     15 C3          2.1412   -3.2730   -0.1002 C.3       1 <0>         0.1250
     16 C4          2.0265    4.3192   -1.2654 C.3       1 <0>        -0.0177
     17 C5         -4.6528   -1.3380    1.5625 C.3       1 <0>        -0.0177
     18 C6          2.4696   -4.3171    0.9681 C.3       1 <0>        -0.0177
     19 C7         -1.9942    2.4037    0.8907 C.3       1 <0>         0.1808
     20 C8          3.1881    0.3287    0.8424 C.3       1 <0>         0.1808
     21 C9         -1.2010   -2.8875   -1.7500 C.3       1 <0>         0.1808
     22 C10        -2.7450    3.7186    0.7363 C.3       1 <0>        -0.0008
     23 C11         4.6063    0.8998    0.8682 C.3       1 <0>        -0.0008
     24 C12        -0.9285   -2.7545   -3.2459 C.3       1 <0>        -0.0008
     25 C13        -0.8836    2.2892   -0.1571 C.2       1 <0>         0.2571
     26 C14        -2.1887   -1.8322   -1.2601 C.2       1 <0>         0.2571
     27 C15         3.0898   -0.9795    0.0444 C.2       1 <0>         0.2571
     28 C16        -2.6673    0.1179    1.1498 C.2       1 <0>         0.3288
     29 C17         2.3320    1.8779   -0.8301 C.2       1 <0>         0.3288
     30 C18         0.8793   -3.6681   -0.8634 C.2       1 <0>         0.3288
     31 C19         2.9555    4.2329   -2.4757 C.3       1 <0>        -0.0605
     32 C20        -5.5749   -2.4027    0.9730 C.3       1 <0>        -0.0605
     33 C21         1.0200    5.4552   -1.4444 C.3       1 <0>        -0.0605
     34 C22        -5.4589   -0.1296    2.0330 C.3       1 <0>        -0.0605
     35 C23         3.7107   -3.9045    1.7542 C.3       1 <0>        -0.0605
     36 C24         2.6664   -5.6893    0.3303 C.3       1 <0>        -0.0605
     37 C25         0.5842    3.8347    1.2225 C.3       1 <0>         0.0041
     38 C26        -2.4593   -3.1342    0.9083 C.3       1 <0>         0.0041
     39 C27         1.2104   -1.6516    1.5822 C.3       1 <0>         0.0041
     40 C28        -3.3528    3.8320   -0.6610 C.3       1 <0>        -0.0588
     41 C29        -3.8306    3.8490    1.8038 C.3       1 <0>        -0.0588
     42 C30         4.6411    2.2153    1.6428 C.3       1 <0>        -0.0588
     43 C31        -0.3067   -1.3952   -3.5618 C.3       1 <0>        -0.0588
     44 C32         5.5796   -0.1075    1.4762 C.3       1 <0>        -0.0588
     45 C33        -2.2136   -2.9545   -4.0475 C.3       1 <0>        -0.0588
     46 H1          0.7849    2.7152   -1.9678 H         1 <0>         0.0619
     47 H2         -4.1037   -0.4577   -0.3194 H         1 <0>         0.0619
     48 H3          2.9288   -3.2978   -0.8644 H         1 <0>         0.0619
     49 H4          2.6627    4.5717   -0.4089 H         1 <0>         0.0319
     50 H5         -4.1848   -1.7571    2.4606 H         1 <0>         0.0319
     51 H6          1.6409   -4.4046    1.6827 H         1 <0>         0.0319
     52 H7         -1.5961    2.2938    1.9032 H         1 <0>         0.0835
     53 H8          2.9271    0.1185    1.8850 H         1 <0>         0.0835
     54 H9         -1.5958   -3.8843   -1.5198 H         1 <0>         0.0835
     55 H10        -2.0610    4.5628    0.8652 H         1 <0>         0.0336
     56 H11         4.9608    1.1139   -0.1461 H         1 <0>         0.0336
     57 H12        -0.2055   -3.5255   -3.5393 H         1 <0>         0.0336
     58 H13         2.4785    3.7363   -3.3273 H         1 <0>         0.0233
     59 H14        -5.0816   -3.3302    0.6927 H         1 <0>         0.0233
     60 H15         3.2468    5.2360   -2.8090 H         1 <0>         0.0233
     61 H16         0.4387    5.6964   -0.5582 H         1 <0>         0.0233
     62 H17        -6.0854   -2.0214    0.0808 H         1 <0>         0.0233
     63 H18         3.8943    3.7239   -2.2398 H         1 <0>         0.0233
     64 H19        -5.9150    0.4008    1.1900 H         1 <0>         0.0233
     65 H20        -6.3517   -2.6711    1.6986 H         1 <0>         0.0233
     66 H21         1.5396    6.3805   -1.7202 H         1 <0>         0.0233
     67 H22        -6.2662   -0.4420    2.7048 H         1 <0>         0.0233
     68 H23         0.3163    5.2277   -2.2535 H         1 <0>         0.0233
     69 H24        -4.8395    0.5803    2.5903 H         1 <0>         0.0233
     70 H25         4.5693   -3.7591    1.0890 H         1 <0>         0.0233
     71 H26         3.9836   -4.6839    2.4749 H         1 <0>         0.0233
     72 H27         3.5727   -2.9883    2.3322 H         1 <0>         0.0233
     73 H28         3.2209   -5.6367   -0.6125 H         1 <0>         0.0233
     74 H29         3.2372   -6.3443    0.9998 H         1 <0>         0.0233
     75 H30         1.7191   -6.2107    0.1673 H         1 <0>         0.0233
     76 H31         1.6600    3.9553    1.3627 H         1 <0>         0.0429
     77 H32         0.0875    4.8029    1.1849 H         1 <0>         0.0429
     78 H33         0.2146    3.3123    2.1082 H         1 <0>         0.0429
     79 H34        -1.4799   -3.5643    0.7009 H         1 <0>         0.0429
     80 H35        -2.4489   -2.8336    1.9574 H         1 <0>         0.0429
     81 H36        -3.1855   -3.9264    0.7283 H         1 <0>         0.0429
     82 H37         0.8113   -0.6379    1.5033 H         1 <0>         0.0429
     83 H38         0.3737   -2.3518    1.5708 H         1 <0>         0.0429
     84 H39         1.7468   -1.7474    2.5292 H         1 <0>         0.0429
     85 H40        -4.0584    3.0228   -0.8764 H         1 <0>         0.0234
     86 H41        -3.9051    4.7742   -0.7554 H         1 <0>         0.0234
     87 H42        -2.5862    3.8382   -1.4422 H         1 <0>         0.0234
     88 H43        -4.6046    3.0824    1.6949 H         1 <0>         0.0234
     89 H44        -4.3209    4.8262    1.7360 H         1 <0>         0.0234
     90 H45        -3.4023    3.7615    2.8078 H         1 <0>         0.0234
     91 H46         4.2673    2.0863    2.6644 H         1 <0>         0.0234
     92 H47         0.1960   -1.4610   -4.5354 H         1 <0>         0.0234
     93 H48         5.6659    2.5972    1.7089 H         1 <0>         0.0234
     94 H49         5.2754   -0.3921    2.4896 H         1 <0>         0.0234
     95 H50        -1.0262   -0.5805   -3.6725 H         1 <0>         0.0234
     96 H51         4.0418    2.9903    1.1568 H         1 <0>         0.0234
     97 H52        -2.9482   -2.1553   -3.9236 H         1 <0>         0.0234
     98 H53         0.4607   -1.0911   -2.8436 H         1 <0>         0.0234
     99 H54         6.5856    0.3222    1.5416 H         1 <0>         0.0234
    100 H55        -1.9781   -3.0025   -5.1169 H         1 <0>         0.0234
    101 H56         5.6626   -1.0206    0.8801 H         1 <0>         0.0234
    102 H57        -2.6944   -3.9014   -3.7787 H         1 <0>         0.0234
@<TRIPOS>BOND
     1    1   19 1
     2    1   28 1
     3    2   20 1
     4    2   29 1
     5    3   21 1
     6    3   30 1
     7    4   25 2
     8    5   26 2
     9    6   27 2
    10    7   28 2
    11    8   29 2
    12    9   30 2
    13   10   13 1
    14   10   25 am
    15   10   37 1
    16   11   14 1
    17   11   26 am
    18   11   38 1
    19   12   15 1
    20   12   27 am
    21   12   39 1
    22   13   16 1
    23   13   29 1
    24   13   46 1
    25   14   17 1
    26   14   28 1
    27   14   47 1
    28   15   18 1
    29   15   30 1
    30   15   48 1
    31   16   31 1
    32   16   33 1
    33   16   49 1
    34   17   32 1
    35   17   34 1
    36   17   50 1
    37   18   35 1
    38   18   36 1
    39   18   51 1
    40   19   22 1
    41   19   25 1
    42   19   52 1
    43   20   23 1
    44   20   27 1
    45   20   53 1
    46   21   24 1
    47   21   26 1
    48   21   54 1
    49   22   40 1
    50   22   41 1
    51   22   55 1
    52   23   42 1
    53   23   44 1
    54   23   56 1
    55   24   43 1
    56   24   45 1
    57   24   57 1
    58   31   58 1
    59   31   60 1
    60   31   63 1
    61   32   59 1
    62   32   62 1
    63   32   65 1
    64   33   61 1
    65   33   66 1
    66   33   68 1
    67   34   64 1
    68   34   67 1
    69   34   69 1
    70   35   70 1
    71   35   71 1
    72   35   72 1
    73   36   73 1
    74   36   74 1
    75   36   75 1
    76   37   76 1
    77   37   77 1
    78   37   78 1
    79   38   79 1
    80   38   80 1
    81   38   81 1
    82   39   82 1
    83   39   83 1
    84   39   84 1
    85   40   85 1
    86   40   86 1
    87   40   87 1
    88   41   88 1
    89   41   89 1
    90   41   90 1
    91   42   91 1
    92   42   93 1
    93   42   96 1
    94   43   92 1
    95   43   95 1
    96   43   98 1
    97   44   94 1
    98   44   99 1
    99   44  101 1
   100   45   97 1
   101   45  100 1
   102   45  102 1
