@<TRIPOS>MOLECULE
DB08964
   66    66     0     0     0
SMALL
USER_CHARGES

@<TRIPOS>ATOM
      1 O1          3.6720   -3.8680    1.4860 O.3       1 <0>        -0.3908
      2 O2         -0.7497   -4.7782    0.1859 O.2       1 <0>        -0.2970
      3 O3          5.0187    1.0591    0.8653 O.3       1 <0>        -0.3872
      4 O4         -6.1926    0.3675    1.2183 O.3       1 <0>        -0.4649
      5 O5         -4.9079    1.9736    0.1656 O.2       1 <0>        -0.2456
      6 C1          1.9316   -2.4976    0.5070 C.3       1 <0>         0.0131
      7 C2          0.4134   -2.6523    0.3295 C.3       1 <0>         0.0262
      8 C3          2.2889   -3.5603    1.5548 C.3       1 <0>         0.0688
      9 C4          1.4501   -4.7763    1.1683 C.3       1 <0>         0.0327
     10 C5         -0.0870   -2.1744   -1.0224 C.3       1 <0>        -0.0429
     11 C6          0.2469   -4.1468    0.5151 C.2       1 <0>         0.1395
     12 C7          3.2879    2.1450   -0.4938 C.3       1 <0>        -0.0053
     13 C8          2.3245   -1.1159    0.9216 C.2       1 <0>        -0.0793
     14 C9          3.6160    1.0580    0.5848 C.3       1 <0>         0.0785
     15 C10        -1.5976   -1.9263   -1.0659 C.3       1 <0>        -0.0521
     16 C11         3.1667   -0.3401    0.2213 C.2       1 <0>        -0.0590
     17 C12         1.7575    2.3065   -0.7441 C.3       1 <0>        -0.0452
     18 C13        -2.0967   -1.4771   -2.4435 C.3       1 <0>        -0.0496
     19 C14         3.8378    3.5238   -0.0543 C.3       1 <0>        -0.0572
     20 C15         3.9888    1.7810   -1.8235 C.3       1 <0>        -0.0572
     21 C16         0.9240    2.7149    0.4773 C.3       1 <0>        -0.0527
     22 C17        -3.6106   -1.2395   -2.4835 C.3       1 <0>        -0.0343
     23 C18        -0.5488    2.8951    0.1015 C.3       1 <0>        -0.0559
     24 C19        -1.3787    3.3359    1.2967 C.3       1 <0>        -0.0653
     25 C20        -4.0568   -0.1335   -1.5700 C.2       1 <0>        -0.0773
     26 C21        -4.9241   -0.3141   -0.5650 C.2       1 <0>         0.0186
     27 C22        -5.3138    0.8289    0.2881 C.2       1 <0>         0.3314
     28 C23        -6.6807    1.3464    2.1418 C.3       1 <0>         0.0820
     29 H1          2.4411   -2.7556   -0.4339 H         1 <0>         0.0375
     30 H2         -0.1210   -2.1559    1.1499 H         1 <0>         0.0384
     31 H3          2.0472   -3.2251    2.5712 H         1 <0>         0.0603
     32 H4          1.9642   -5.4227    0.4509 H         1 <0>         0.0367
     33 H5          1.1569   -5.3521    2.0496 H         1 <0>         0.0367
     34 H6          0.4116   -1.2340   -1.2887 H         1 <0>         0.0272
     35 H7          0.1793   -2.9000   -1.8017 H         1 <0>         0.0272
     36 H8          1.8906   -0.7247    1.8388 H         1 <0>         0.0574
     37 H9          3.1382    1.3516    1.5269 H         1 <0>         0.0643
     38 H10        -1.8416   -1.1645   -0.3159 H         1 <0>         0.0266
     39 H11        -2.1346   -2.8367   -0.7771 H         1 <0>         0.0266
     40 H12         3.6066   -0.7591   -0.6812 H         1 <0>         0.0595
     41 H13         1.6056    3.0532   -1.5357 H         1 <0>         0.0271
     42 H14         1.3557    1.3666   -1.1445 H         1 <0>         0.0271
     43 H15         3.5132    3.7858    0.9578 H         1 <0>         0.0236
     44 H16         3.5136    4.3201   -0.7339 H         1 <0>         0.0236
     45 H17         4.9339    3.5293   -0.0487 H         1 <0>         0.0236
     46 H18         3.5637    0.8792   -2.2755 H         1 <0>         0.0236
     47 H19         3.8696    2.5871   -2.5574 H         1 <0>         0.0236
     48 H20         5.0638    1.6212   -1.6876 H         1 <0>         0.0236
     49 H21        -1.8425   -2.2425   -3.1869 H         1 <0>         0.0268
     50 H22        -1.5718   -0.5604   -2.7408 H         1 <0>         0.0268
     51 H23         3.8384   -4.5978    2.1068 H         1 <0>         0.2098
     52 H24         0.9989    1.9538    1.2611 H         1 <0>         0.0265
     53 H25         1.2948    3.6558    0.8963 H         1 <0>         0.0265
     54 H26        -4.1308   -2.1760   -2.2473 H         1 <0>         0.0307
     55 H27        -3.8982   -0.9728   -3.5076 H         1 <0>         0.0307
     56 H28        -0.6423    3.6434   -0.6941 H         1 <0>         0.0263
     57 H29        -0.9512    1.9529   -0.2894 H         1 <0>         0.0263
     58 H30         5.1855    0.3841    1.5454 H         1 <0>         0.2102
     59 H31        -1.0199    4.2910    1.6934 H         1 <0>         0.0230
     60 H32        -1.3363    2.5923    2.0989 H         1 <0>         0.0230
     61 H33        -2.4260    3.4614    1.0051 H         1 <0>         0.0230
     62 H34        -3.6403    0.8511   -1.7685 H         1 <0>         0.0574
     63 H35        -5.3510   -1.2891   -0.3554 H         1 <0>         0.0686
     64 H36        -5.8521    1.7703    2.7172 H         1 <0>         0.0661
     65 H37        -7.2231    2.1327    1.6082 H         1 <0>         0.0661
     66 H38        -7.3691    0.8502    2.8310 H         1 <0>         0.0661
@<TRIPOS>BOND
     1    1    8 1
     2    1   51 1
     3    2   11 2
     4    3   14 1
     5    3   58 1
     6    4   27 1
     7    4   28 1
     8    5   27 2
     9    6    7 1
    10    6    8 1
    11    6   13 1
    12    6   29 1
    13    7   10 1
    14    7   11 1
    15    7   30 1
    16    8    9 1
    17    8   31 1
    18    9   11 1
    19    9   32 1
    20    9   33 1
    21   10   15 1
    22   10   34 1
    23   10   35 1
    24   12   14 1
    25   12   17 1
    26   12   19 1
    27   12   20 1
    28   13   16 2
    29   13   36 1
    30   14   16 1
    31   14   37 1
    32   15   18 1
    33   15   38 1
    34   15   39 1
    35   16   40 1
    36   17   21 1
    37   17   41 1
    38   17   42 1
    39   18   22 1
    40   18   49 1
    41   18   50 1
    42   19   43 1
    43   19   44 1
    44   19   45 1
    45   20   46 1
    46   20   47 1
    47   20   48 1
    48   21   23 1
    49   21   52 1
    50   21   53 1
    51   22   25 1
    52   22   54 1
    53   22   55 1
    54   23   24 1
    55   23   56 1
    56   23   57 1
    57   24   59 1
    58   24   60 1
    59   24   61 1
    60   25   26 2
    61   25   62 1
    62   26   27 1
    63   26   63 1
    64   28   64 1
    65   28   65 1
    66   28   66 1
