@<TRIPOS>MOLECULE
DB08872
   50    50     0     0     0
SMALL
USER_CHARGES

@<TRIPOS>ATOM
      1 O1          5.5686   -1.7360   -0.3837 O.3       1 <0>        -0.4806
      2 O2          3.9520   -3.1255    0.4140 O.2       1 <0>        -0.2510
      3 O3         -1.1573   -2.1739    0.2325 O.3       1 <0>        -0.4107
      4 O4         -0.7500   -0.2740    1.4581 O.2       1 <0>        -0.2264
      5 O5         -3.0736   -0.8133   -0.1161 O.3       1 <0>        -0.4247
      6 O6         -4.9684   -0.8712    1.1994 O.2       1 <0>        -0.2505
      7 N1          0.9663   -1.4929    0.4853 N.am      1 <0>        -0.2805
      8 C1          2.8621   -0.1021   -0.2644 C.3       1 <0>        -0.0036
      9 C2          4.0606    0.7379    0.2327 C.3       1 <0>        -0.0454
     10 C3          1.9489    0.7647   -1.1610 C.3       1 <0>        -0.0454
     11 C4          3.6492    2.0613    0.8778 C.3       1 <0>        -0.0525
     12 C5          1.5409    2.0880   -0.5137 C.3       1 <0>        -0.0525
     13 C6          2.7541    2.8827   -0.0433 C.3       1 <0>        -0.0530
     14 C7          2.0680   -0.6706    0.9275 C.3       1 <0>         0.0209
     15 C8          3.3917   -1.2899   -1.0897 C.3       1 <0>         0.0518
     16 C9          4.2864   -2.1672   -0.2661 C.2       1 <0>         0.3053
     17 C10        -0.3513   -1.2214    0.7888 C.2       1 <0>         0.4032
     18 C11        -2.5763   -2.0365    0.4610 C.3       1 <0>         0.2480
     19 C12        -3.2546   -3.2162   -0.2208 C.3       1 <0>         0.0101
     20 C13        -4.6120    0.9492   -0.3760 C.3       1 <0>         0.0509
     21 C14        -4.2727   -0.3456    0.3408 C.2       1 <0>         0.3125
     22 C15        -4.0262    2.1293    0.3903 C.3       1 <0>        -0.0525
     23 C16        -6.1223    1.0986   -0.5394 C.3       1 <0>        -0.0525
     24 H1          4.6509    0.1851    0.9728 H         1 <0>         0.0271
     25 H2          4.7299    0.9615   -0.6089 H         1 <0>         0.0271
     26 H3          2.4847    0.9995   -2.0913 H         1 <0>         0.0271
     27 H4          1.0503    0.2183   -1.4702 H         1 <0>         0.0271
     28 H5          3.1318    1.8752    1.8259 H         1 <0>         0.0265
     29 H6          4.5471    2.6404    1.1232 H         1 <0>         0.0265
     30 H7          0.9744    2.6859   -1.2373 H         1 <0>         0.0265
     31 H8          0.8682    1.9053    0.3314 H         1 <0>         0.0265
     32 H9          2.4228    3.7891    0.4760 H         1 <0>         0.0265
     33 H10         3.3339    3.2102   -0.9151 H         1 <0>         0.0265
     34 H11         1.6774    0.1334    1.5591 H         1 <0>         0.0469
     35 H12         2.6871   -1.2849    1.5886 H         1 <0>         0.0469
     36 H13         2.5942   -1.9103   -1.5135 H         1 <0>         0.0383
     37 H14         3.9572   -0.9360   -1.9627 H         1 <0>         0.0383
     38 H15         1.1641   -2.3537   -0.0148 H         1 <0>         0.1520
     39 H16         6.1883   -2.2836    0.1437 H         1 <0>         0.2951
     40 H17        -2.7578   -2.0626    1.5430 H         1 <0>         0.1204
     41 H18        -2.8579   -4.1643    0.1563 H         1 <0>         0.0301
     42 H19        -4.3383   -3.2000   -0.0738 H         1 <0>         0.0301
     43 H20        -3.0710   -3.1917   -1.3010 H         1 <0>         0.0301
     44 H21        -4.1736    0.9107   -1.3813 H         1 <0>         0.0408
     45 H22        -4.4393    2.1900    1.4033 H         1 <0>         0.0237
     46 H23        -4.2370    3.0730   -0.1230 H         1 <0>         0.0237
     47 H24        -2.9392    2.0308    0.4852 H         1 <0>         0.0237
     48 H25        -6.3646    1.9992   -1.1129 H         1 <0>         0.0237
     49 H26        -6.5423    0.2358   -1.0679 H         1 <0>         0.0237
     50 H27        -6.6260    1.1683    0.4311 H         1 <0>         0.0237
@<TRIPOS>BOND
     1    1   16 1
     2    1   39 1
     3    2   16 2
     4    3   17 1
     5    3   18 1
     6    4   17 2
     7    5   18 1
     8    5   21 1
     9    6   21 2
    10    7   14 1
    11    7   17 am
    12    7   38 1
    13    8    9 1
    14    8   10 1
    15    8   14 1
    16    8   15 1
    17    9   11 1
    18    9   24 1
    19    9   25 1
    20   10   12 1
    21   10   26 1
    22   10   27 1
    23   11   13 1
    24   11   28 1
    25   11   29 1
    26   12   13 1
    27   12   30 1
    28   12   31 1
    29   13   32 1
    30   13   33 1
    31   14   34 1
    32   14   35 1
    33   15   16 1
    34   15   36 1
    35   15   37 1
    36   18   19 1
    37   18   40 1
    38   19   41 1
    39   19   42 1
    40   19   43 1
    41   20   21 1
    42   20   22 1
    43   20   23 1
    44   20   44 1
    45   22   45 1
    46   22   46 1
    47   22   47 1
    48   23   48 1
    49   23   49 1
    50   23   50 1
