@<TRIPOS>MOLECULE
DB08883
   42    45     0     0     0
SMALL
USER_CHARGES

@<TRIPOS>ATOM
      1 O1          0.6806   -2.5109    0.4064 O.2       1 <0>        -0.2667
      2 N1         -1.0678   -0.9625    0.0891 N.am      1 <0>        -0.2831
      3 N2         -2.1689    3.0239    0.5752 N.ar      1 <0>        -0.2549
      4 N3          2.4421   -0.5887   -3.2414 N.1       1 <0>        -0.1909
      5 C1          1.3132   -0.2538    0.2225 C.2       1 <0>         0.0489
      6 C2         -0.4920    1.3778    0.0971 C.2       1 <0>         0.0177
      7 C3          0.2856   -1.3570    0.2295 C.2       1 <0>         0.2635
      8 C4          0.9062    1.0228    0.1689 C.2       1 <0>        -0.0382
      9 C5         -1.4020    0.3911    0.0478 C.2       1 <0>         0.0224
     10 C6          2.7545   -0.5603    0.2719 C.ar      1 <0>         0.0047
     11 C7         -2.1050   -1.9743    0.0210 C.ar      1 <0>         0.0495
     12 C8         -0.9584    2.7769    0.0284 C.ar      1 <0>         0.0724
     13 C9          3.5083   -0.7526   -0.8857 C.ar      1 <0>         0.0596
     14 C10         3.3624   -0.6558    1.5238 C.ar      1 <0>        -0.0526
     15 C11        -3.3701   -1.6978    0.5261 C.ar      1 <0>        -0.0377
     16 C12        -1.8236   -3.2100   -0.5499 C.ar      1 <0>        -0.0377
     17 C13        -0.1655    3.7402   -0.5727 C.ar      1 <0>        -0.0356
     18 C14         4.8699   -1.0404   -0.7917 C.ar      1 <0>        -0.0438
     19 C15         4.7241   -0.9435    1.6180 C.ar      1 <0>        -0.0611
     20 C16        -4.3677   -2.6705    0.4596 C.ar      1 <0>        -0.0598
     21 C17        -2.8211   -4.1827   -0.6166 C.ar      1 <0>        -0.0598
     22 C18         5.4777   -1.1357    0.4602 C.ar      1 <0>        -0.0605
     23 C19        -4.0932   -3.9128   -0.1118 C.ar      1 <0>        -0.0616
     24 C20        -0.6473    5.0439   -0.6150 C.ar      1 <0>        -0.0583
     25 C21        -2.6043    4.3023    0.5151 C.ar      1 <0>         0.0283
     26 C22        -1.8889    5.3386   -0.0630 C.ar      1 <0>        -0.0436
     27 C23         2.9185   -0.6621   -2.1886 C.1       1 <0>         0.0998
     28 H1          1.6425    1.8214    0.1883 H         1 <0>         0.0632
     29 H2         -2.4539    0.6219   -0.0788 H         1 <0>         0.0820
     30 H3          2.7903   -0.5100    2.4372 H         1 <0>         0.0624
     31 H4         -3.6172   -0.7602    1.0144 H         1 <0>         0.0638
     32 H5         -0.8713   -3.4449   -1.0132 H         1 <0>         0.0638
     33 H6          0.7950    3.5213   -1.0260 H         1 <0>         0.0639
     34 H7          5.4727   -1.1932   -1.6839 H         1 <0>         0.0631
     35 H8          5.1973   -1.0181    2.5926 H         1 <0>         0.0618
     36 H9         -5.3561   -2.4640    0.8599 H         1 <0>         0.0618
     37 H10        -2.6122   -5.1453   -1.0744 H         1 <0>         0.0618
     38 H11         6.5379   -1.3598    0.5335 H         1 <0>         0.0618
     39 H12        -4.8702   -4.6699   -0.1651 H         1 <0>         0.0618
     40 H13        -0.0588    5.8281   -1.0818 H         1 <0>         0.0619
     41 H14        -3.5782    4.4795    0.9591 H         1 <0>         0.0830
     42 H15        -2.2850    6.3473   -0.0858 H         1 <0>         0.0633
@<TRIPOS>BOND
     1    1    7 2
     2    2    7 am
     3    2    9 1
     4    2   11 1
     5    3   12 ar
     6    3   25 ar
     7    4   27 3
     8    5    7 1
     9    5    8 2
    10    5   10 1
    11    6    8 1
    12    6    9 2
    13    6   12 1
    14    8   28 1
    15    9   29 1
    16   10   13 ar
    17   10   14 ar
    18   11   15 ar
    19   11   16 ar
    20   12   17 ar
    21   13   18 ar
    22   13   27 1
    23   14   19 ar
    24   14   30 1
    25   15   20 ar
    26   15   31 1
    27   16   21 ar
    28   16   32 1
    29   17   24 ar
    30   17   33 1
    31   18   22 ar
    32   18   34 1
    33   19   22 ar
    34   19   35 1
    35   20   23 ar
    36   20   36 1
    37   21   23 ar
    38   21   37 1
    39   22   38 1
    40   23   39 1
    41   24   26 ar
    42   24   40 1
    43   25   26 ar
    44   25   41 1
    45   26   42 1
