@<TRIPOS>MOLECULE
DB08911
   60    64     0     0     0
SMALL
USER_CHARGES

@<TRIPOS>ATOM
      1 I1         -8.4601    0.8477    1.3104 I         1 <0>        -0.0437
      2 F1         -4.9152    2.0480   -2.5575 F         1 <0>        -0.2035
      3 O1         -2.4096   -0.9319   -1.8394 O.2       1 <0>        -0.2667
      4 O2          0.8903   -3.6155   -0.4568 O.2       1 <0>        -0.2458
      5 O3          0.7809    3.1118    1.8193 O.2       1 <0>        -0.2673
      6 O4          3.9699    2.2435   -1.1094 O.2       1 <0>        -0.2758
      7 N1         -0.9771   -2.2964   -0.6535 N.am      1 <0>        -0.2569
      8 N2          1.0809   -1.3468    0.1136 N.am      1 <0>        -0.2614
      9 N3         -0.8664    2.3708    0.3651 N.am      1 <0>        -0.2987
     10 N4         -2.6645    1.5361   -1.0019 N.pl3     1 <0>        -0.2978
     11 N5          5.5132    0.5565   -0.5343 N.am      1 <0>        -0.2857
     12 C1         -1.7646   -3.4780   -1.0010 C.3       1 <0>         0.0424
     13 C2         -2.1382   -4.4507    0.0520 C.3       1 <0>        -0.0300
     14 C3         -3.1806   -3.5732   -0.5769 C.3       1 <0>        -0.0300
     15 C4         -1.4977   -1.0578   -1.0241 C.2       1 <0>         0.2678
     16 C5          0.3707   -2.5028   -0.3061 C.2       1 <0>         0.3372
     17 C6         -0.8375    0.1117   -0.3565 C.2       1 <0>         0.1022
     18 C7          0.4364   -0.1088    0.3232 C.2       1 <0>         0.0751
     19 C8         -1.4646    1.3210   -0.3538 C.2       1 <0>         0.1202
     20 C9          0.9072    0.8491    1.1577 C.2       1 <0>         0.0388
     21 C10         2.5259   -1.4743    0.1587 C.ar      1 <0>         0.0532
     22 C11         0.2723    2.2093    1.1510 C.2       1 <0>         0.2573
     23 C12         2.0029    0.7106    2.1865 C.3       1 <0>        -0.0326
     24 C13         3.3164   -0.3966   -0.2097 C.ar      1 <0>        -0.0164
     25 C14         3.0903   -2.6725    0.5690 C.ar      1 <0>        -0.0376
     26 C15        -1.4893    3.6980    0.3313 C.3       1 <0>         0.0164
     27 C16        -3.9484    1.3862   -0.4913 C.ar      1 <0>         0.0681
     28 C17         4.7052   -0.5199   -0.1665 C.ar      1 <0>         0.0353
     29 C18         4.4789   -2.7958    0.6122 C.ar      1 <0>        -0.0581
     30 C19         5.2864   -1.7194    0.2445 C.ar      1 <0>        -0.0403
     31 C20        -5.0761    1.6468   -1.2886 C.ar      1 <0>         0.1454
     32 C21        -4.1466    0.9682    0.8358 C.ar      1 <0>        -0.0367
     33 C22        -6.3635    1.4939   -0.7740 C.ar      1 <0>        -0.0115
     34 C23        -5.4341    0.8152    1.3502 C.ar      1 <0>        -0.0467
     35 C24        -6.5426    1.0780    0.5453 C.ar      1 <0>         0.0162
     36 C25         5.1156    1.8276   -0.9697 C.2       1 <0>         0.2141
     37 C26         6.3000    2.7111   -1.2716 C.3       1 <0>         0.0125
     38 H1         -1.5160   -3.8704   -1.9819 H         1 <0>         0.0530
     39 H2         -2.1413   -5.5024   -0.2067 H         1 <0>         0.0286
     40 H3         -1.8630   -4.2440    1.0790 H         1 <0>         0.0286
     41 H4         -3.8843   -4.0355   -1.2584 H         1 <0>         0.0286
     42 H5         -3.6077   -2.7925    0.0408 H         1 <0>         0.0286
     43 H6         -2.5937    2.1023   -1.8413 H         1 <0>         0.1536
     44 H7          1.6690    1.1377    3.1406 H         1 <0>         0.0280
     45 H8          2.9045    1.2535    1.8884 H         1 <0>         0.0280
     46 H9          2.2497   -0.3259    2.4266 H         1 <0>         0.0280
     47 H10         2.8351    0.4877   -0.5972 H         1 <0>         0.0657
     48 H11         2.5230   -3.5045    0.9712 H         1 <0>         0.0638
     49 H12        -2.4433    3.6601    0.8658 H         1 <0>         0.0457
     50 H13        -1.6483    4.0043   -0.7074 H         1 <0>         0.0457
     51 H14        -0.8607    4.4533    0.8111 H         1 <0>         0.0457
     52 H15         4.9325   -3.7209    0.9560 H         1 <0>         0.0619
     53 H16         6.3671   -1.8278    0.2884 H         1 <0>         0.0636
     54 H17        -3.3083    0.7540    1.4940 H         1 <0>         0.0637
     55 H18         6.5152    0.3871   -0.4759 H         1 <0>         0.1548
     56 H19        -7.2130    1.7040   -1.4187 H         1 <0>         0.0657
     57 H20        -5.5514    0.4898    2.3807 H         1 <0>         0.0628
     58 H21         6.8912    2.8591   -0.3635 H         1 <0>         0.0323
     59 H22         5.9546    3.6834   -1.6334 H         1 <0>         0.0323
     60 H23         6.9224    2.2471   -2.0418 H         1 <0>         0.0323
@<TRIPOS>BOND
     1    1   35 1
     2    2   31 1
     3    3   15 2
     4    4   16 2
     5    5   22 2
     6    6   36 2
     7    7   12 1
     8    7   15 am
     9    7   16 am
    10    8   16 am
    11    8   18 1
    12    8   21 1
    13    9   19 1
    14    9   22 am
    15    9   26 1
    16   10   19 1
    17   10   27 1
    18   10   43 1
    19   11   28 1
    20   11   36 am
    21   11   55 1
    22   12   13 1
    23   12   14 1
    24   12   38 1
    25   13   14 1
    26   13   39 1
    27   13   40 1
    28   14   41 1
    29   14   42 1
    30   15   17 1
    31   17   18 1
    32   17   19 2
    33   18   20 2
    34   20   22 1
    35   20   23 1
    36   21   24 ar
    37   21   25 ar
    38   23   44 1
    39   23   45 1
    40   23   46 1
    41   24   28 ar
    42   24   47 1
    43   25   29 ar
    44   25   48 1
    45   26   49 1
    46   26   50 1
    47   26   51 1
    48   27   31 ar
    49   27   32 ar
    50   28   30 ar
    51   29   30 ar
    52   29   52 1
    53   30   53 1
    54   31   33 ar
    55   32   34 ar
    56   32   54 1
    57   33   35 ar
    58   33   56 1
    59   34   35 ar
    60   34   57 1
    61   36   37 1
    62   37   58 1
    63   37   59 1
    64   37   60 1
