@<TRIPOS>MOLECULE
DB08865
   52    55     0     0     0
SMALL
USER_CHARGES

@<TRIPOS>ATOM
      1 Cl1         2.8054   -0.8604    2.7669 Cl        1 <0>        -0.0801
      2 Cl2         4.0597   -2.2265   -2.3574 Cl        1 <0>        -0.0831
      3 F1          0.9989   -3.1625    2.5473 F         1 <0>        -0.2039
      4 O1          3.8956    0.4250   -0.8515 O.3       1 <0>        -0.4810
      5 N1         -2.5773    1.0770   -0.1278 N.pl3     1 <0>        -0.2677
      6 N2         -6.4706   -0.7132   -0.0609 N.3       1 <0>        -0.3158
      7 N3         -2.8687    2.3691   -0.3432 N.2       1 <0>        -0.1788
      8 N4          2.6853    3.6400    0.4002 N.ar      1 <0>        -0.2364
      9 N5          4.8975    2.8466    0.0649 N.pl3     1 <0>        -0.3402
     10 C1         -3.6626    0.0949   -0.0341 C.3       1 <0>         0.0550
     11 C2         -4.4662   -0.0276   -1.3383 C.3       1 <0>        -0.0179
     12 C3         -4.6011    0.3593    1.1535 C.3       1 <0>        -0.0179
     13 C4         -5.5981   -1.0439   -1.1884 C.3       1 <0>        -0.0022
     14 C5         -5.7276   -0.6730    1.1993 C.3       1 <0>        -0.0022
     15 C6         -1.2452    0.8183   -0.0154 C.2       1 <0>         0.0336
     16 C7         -0.6165    2.0298   -0.1691 C.2       1 <0>         0.0211
     17 C8         -1.6652    2.9478   -0.3676 C.2       1 <0>         0.0571
     18 C9          0.8010    2.2125   -0.1195 C.ar      1 <0>         0.0068
     19 C10         1.6718    1.2028   -0.5202 C.ar      1 <0>        -0.0072
     20 C11         1.3564    3.4021    0.3288 C.ar      1 <0>         0.0377
     21 C12         3.0454    1.4098   -0.4612 C.ar      1 <0>         0.1613
     22 C13         4.3212   -0.5027    0.1474 C.3       1 <0>         0.1253
     23 C14         3.4973    2.6349    0.0023 C.ar      1 <0>         0.1583
     24 C15         3.3410   -1.6498    0.2122 C.ar      1 <0>         0.0318
     25 C16         5.7359   -0.9753   -0.1686 C.3       1 <0>        -0.0234
     26 C17         2.6167   -1.8691    1.3770 C.ar      1 <0>         0.0841
     27 C18         3.1749   -2.4721   -0.8950 C.ar      1 <0>         0.0492
     28 C19         1.7112   -2.9285    1.4357 C.ar      1 <0>         0.1421
     29 C20         2.2695   -3.5316   -0.8362 C.ar      1 <0>        -0.0402
     30 C21         1.5377   -3.7598    0.3290 C.ar      1 <0>        -0.0236
     31 H1         -3.1672   -0.8706    0.1426 H         1 <0>         0.0545
     32 H2         -3.8053   -0.3307   -2.1595 H         1 <0>         0.0298
     33 H3         -4.8868    0.9468   -1.6194 H         1 <0>         0.0298
     34 H4         -5.0330    1.3662    1.0810 H         1 <0>         0.0298
     35 H5         -4.0357    0.3294    2.0929 H         1 <0>         0.0298
     36 H6         -6.1960   -1.0615   -2.1062 H         1 <0>         0.0425
     37 H7         -5.1901   -2.0537   -1.0604 H         1 <0>         0.0425
     38 H8         -5.3251   -1.6675    1.4266 H         1 <0>         0.0425
     39 H9         -6.4192   -0.4219    2.0109 H         1 <0>         0.0425
     40 H10        -6.8909    0.2017   -0.2258 H         1 <0>         0.1219
     41 H11        -0.8739   -0.1819    0.1667 H         1 <0>         0.0832
     42 H12        -1.6105    4.0150   -0.5317 H         1 <0>         0.0854
     43 H13         1.2974    0.2562   -0.9019 H         1 <0>         0.0662
     44 H14         0.7415    4.2330    0.6624 H         1 <0>         0.0836
     45 H15         4.4114    0.0320    1.0967 H         1 <0>         0.0782
     46 H16         5.9900   -0.9662   -1.2309 H         1 <0>         0.0269
     47 H17         5.9673   -1.9511    0.2709 H         1 <0>         0.0269
     48 H18         6.4451   -0.2599    0.2693 H         1 <0>         0.0269
     49 H19         2.1221   -4.1886   -1.6898 H         1 <0>         0.0633
     50 H20         5.4898    2.3346   -0.5772 H         1 <0>         0.1438
     51 H21         5.2133    3.7492    0.3975 H         1 <0>         0.1438
     52 H22         0.8324   -4.5844    0.3750 H         1 <0>         0.0647
@<TRIPOS>BOND
     1    1   26 1
     2    2   27 1
     3    3   28 1
     4    4   21 1
     5    4   22 1
     6    5    7 1
     7    5   10 1
     8    5   15 2
     9    6   13 1
    10    6   14 1
    11    6   40 1
    12    7   17 1
    13    8   20 ar
    14    8   23 ar
    15    9   23 1
    16    9   50 1
    17    9   51 1
    18   10   11 1
    19   10   12 1
    20   10   31 1
    21   11   13 1
    22   11   32 1
    23   11   33 1
    24   12   14 1
    25   12   34 1
    26   12   35 1
    27   13   36 1
    28   13   37 1
    29   14   38 1
    30   14   39 1
    31   15   16 1
    32   15   41 1
    33   16   17 2
    34   16   18 1
    35   17   42 1
    36   18   19 ar
    37   18   20 ar
    38   19   21 ar
    39   19   43 1
    40   20   44 1
    41   21   23 ar
    42   22   24 1
    43   22   25 1
    44   22   45 1
    45   24   26 ar
    46   24   27 ar
    47   25   46 1
    48   25   47 1
    49   25   48 1
    50   26   28 ar
    51   27   29 ar
    52   28   30 ar
    53   29   30 ar
    54   29   49 1
    55   30   52 1
