@<TRIPOS>MOLECULE
DB08933
   30    32     0     0     0
SMALL
USER_CHARGES

@<TRIPOS>ATOM
      1 Cl1        -3.1045   -1.8018   -2.2981 Cl        1 <0>        -0.0832
      2 Cl2        -6.8789    0.8915    0.4353 Cl        1 <0>        -0.0835
      3 S1         -0.0715    0.9290   -0.7300 S.3       1 <0>        -0.1068
      4 S2          1.3492   -1.2763    0.6389 S.3       1 <0>        -0.1143
      5 N1          3.8916    0.3093   -0.1115 N.pl3     1 <0>        -0.2957
      6 N2          5.9846    0.3044    0.4756 N.2       1 <0>        -0.2437
      7 N3          2.4457    3.0628   -1.7972 N.1       1 <0>        -0.1893
      8 C1         -1.0808   -0.5480   -0.3286 C.3       1 <0>         0.0460
      9 C2         -0.4528   -1.2102    0.9015 C.3       1 <0>         0.0151
     10 C3         -2.5445   -0.2055   -0.1624 C.ar      1 <0>        -0.0149
     11 C4          1.4394    0.2301   -0.2256 C.2       1 <0>         0.0760
     12 C5         -3.5198   -0.7299   -1.0107 C.ar      1 <0>         0.0466
     13 C6         -2.9096    0.6579    0.8706 C.ar      1 <0>        -0.0547
     14 C7          2.6105    0.8205   -0.4904 C.2       1 <0>         0.1451
     15 C8         -4.8600   -0.3907   -0.8262 C.ar      1 <0>        -0.0247
     16 C9         -4.2498    0.9970    1.0551 C.ar      1 <0>        -0.0430
     17 C10        -5.2252    0.4727    0.2067 C.ar      1 <0>         0.0424
     18 C11         4.1802   -0.9899    0.0206 C.cat     1 <0>         0.0300
     19 C12         4.9614    1.0663    0.1585 C.cat     1 <0>         0.1009
     20 C13         2.5275    2.0626   -1.2136 C.1       1 <0>         0.1193
     21 C14         5.5045   -0.9786    0.3911 C.2       1 <0>         0.0458
     22 H1         -0.9227   -1.2247   -1.1724 H         1 <0>         0.0473
     23 H2         -0.6396   -0.6552    1.8271 H         1 <0>         0.0394
     24 H3         -0.8412   -2.2243    1.0438 H         1 <0>         0.0394
     25 H4         -2.1717    1.0832    1.5454 H         1 <0>         0.0622
     26 H5         -5.6221   -0.7990   -1.4867 H         1 <0>         0.0647
     27 H6         -4.5200    1.6713    1.8636 H         1 <0>         0.0632
     28 H7          3.5887   -1.8426   -0.2726 H         1 <0>         0.0829
     29 H8          4.9839    2.1480    0.1297 H         1 <0>         0.1032
     30 H9          6.1474   -1.8298    0.5624 H         1 <0>         0.0845
@<TRIPOS>BOND
     1    1   12 1
     2    2   17 1
     3    3    8 1
     4    3   11 1
     5    4    9 1
     6    4   11 1
     7    5   14 1
     8    5   18 1
     9    5   19 2
    10    6   19 1
    11    6   21 2
    12    7   20 3
    13    8    9 1
    14    8   10 1
    15    8   22 1
    16    9   23 1
    17    9   24 1
    18   10   12 ar
    19   10   13 ar
    20   11   14 2
    21   12   15 ar
    22   13   16 ar
    23   13   25 1
    24   14   20 1
    25   15   17 ar
    26   15   26 1
    27   16   17 ar
    28   16   27 1
    29   18   21 1
    30   18   28 1
    31   19   29 1
    32   21   30 1
