@<TRIPOS>MOLECULE
DB08981
   33    34     0     0     0
SMALL
USER_CHARGES

@<TRIPOS>ATOM
      1 O1         -2.8252   -2.1807   -0.0000 O.2       1 <0>        -0.2920
      2 O2         -7.0917    0.5289    0.0095 O.3       1 <0>        -0.4806
      3 O3         -5.4106    2.0590   -0.0189 O.2       1 <0>        -0.2510
      4 C1         -0.9667   -0.7396    0.0030 C.ar      1 <0>         0.0174
      5 C2          1.7374   -0.2321    0.0016 C.ar      1 <0>        -0.0178
      6 C3         -3.3983    0.1597    0.0109 C.3       1 <0>         0.0205
      7 C4         -2.4337   -1.0158    0.0036 C.2       1 <0>         0.1637
      8 C5          3.1597    0.0340    0.0003 C.ar      1 <0>        -0.0179
      9 C6         -0.5417    0.5692    0.0092 C.ar      1 <0>        -0.0507
     10 C7         -0.0962   -1.8055   -0.0037 C.ar      1 <0>        -0.0507
     11 C8          0.8292    0.8264    0.0084 C.ar      1 <0>        -0.0534
     12 C9          1.2748   -1.5481   -0.0044 C.ar      1 <0>        -0.0534
     13 C10        -4.8544   -0.2907   -0.0140 C.3       1 <0>         0.0518
     14 C11         3.8428    0.1687   -1.2084 C.ar      1 <0>        -0.0540
     15 C12         3.8476    0.1566    1.2076 C.ar      1 <0>        -0.0540
     16 C13         5.2138    0.4256   -1.2099 C.ar      1 <0>        -0.0612
     17 C14         5.2187    0.4136    1.2061 C.ar      1 <0>        -0.0612
     18 C15        -5.7856    0.8937   -0.0124 C.2       1 <0>         0.3051
     19 C16         5.9017    0.5481   -0.0028 C.ar      1 <0>        -0.0617
     20 H1         -3.2223    0.7531    0.9159 H         1 <0>         0.0350
     21 H2         -3.2039    0.7787   -0.8727 H         1 <0>         0.0350
     22 H3         -1.2103    1.4221    0.0158 H         1 <0>         0.0625
     23 H4         -0.4351   -2.8366   -0.0086 H         1 <0>         0.0625
     24 H5          1.1737    1.8580    0.0133 H         1 <0>         0.0624
     25 H6          1.9695   -2.3849   -0.0098 H         1 <0>         0.0624
     26 H7         -5.0521   -0.8837   -0.9140 H         1 <0>         0.0382
     27 H8         -5.0736   -0.9037    0.8673 H         1 <0>         0.0382
     28 H9          3.3218    0.0762   -2.1585 H         1 <0>         0.0624
     29 H10         3.3305    0.0547    2.1588 H         1 <0>         0.0624
     30 H11         5.7458    0.5304   -2.1510 H         1 <0>         0.0618
     31 H12         5.7544    0.5090    2.1459 H         1 <0>         0.0618
     32 H13         6.9691    0.7483   -0.0039 H         1 <0>         0.0618
     33 H14        -7.6890    1.3071    0.0160 H         1 <0>         0.2951
@<TRIPOS>BOND
     1    1    7 2
     2    2   18 1
     3    2   33 1
     4    3   18 2
     5    4    7 1
     6    4    9 ar
     7    4   10 ar
     8    5    8 1
     9    5   11 ar
    10    5   12 ar
    11    6    7 1
    12    6   13 1
    13    6   20 1
    14    6   21 1
    15    8   14 ar
    16    8   15 ar
    17    9   11 ar
    18    9   22 1
    19   10   12 ar
    20   10   23 1
    21   11   24 1
    22   12   25 1
    23   13   18 1
    24   13   26 1
    25   13   27 1
    26   14   16 ar
    27   14   28 1
    28   15   17 ar
    29   15   29 1
    30   16   19 ar
    31   16   30 1
    32   17   19 ar
    33   17   31 1
    34   19   32 1
