@<TRIPOS>MOLECULE
DB08903
   68    72     0     0     0
SMALL
USER_CHARGES

@<TRIPOS>ATOM
      1 Br1         6.5353    0.2382    3.4757 Br        1 <0>        -0.0503
      2 O1         -0.5474    0.5697    1.4507 O.3       1 <0>        -0.3830
      3 O2          1.4863   -2.2527   -2.4322 O.3       1 <0>        -0.4794
      4 N1          0.8946    4.1427   -0.5127 N.3       1 <0>        -0.3082
      5 N2          3.4566   -1.9426   -1.2625 N.ar      1 <0>        -0.2127
      6 C1         -0.6461    0.5611    0.0082 C.3       1 <0>         0.1035
      7 C2         -0.0766   -0.8479   -0.5062 C.3       1 <0>         0.0472
      8 C3          0.3078    1.7130   -0.5027 C.3       1 <0>        -0.0061
      9 C4         -2.0570    0.7888   -0.4400 C.ar      1 <0>        -0.0075
     10 C5          1.4351   -1.0551   -0.3791 C.ar      1 <0>         0.0252
     11 C6         -0.0179    3.1302    0.0017 C.3       1 <0>         0.0013
     12 C7         -0.8486   -2.0860   -0.0311 C.ar      1 <0>        -0.0367
     13 C8         -3.1576    0.3448    0.3111 C.ar      1 <0>        -0.0120
     14 C9         -2.2440    1.4661   -1.6453 C.ar      1 <0>        -0.0552
     15 C10         2.0813   -0.5427    0.7103 C.ar      1 <0>        -0.0436
     16 C11        -4.4664    0.5917   -0.1673 C.ar      1 <0>        -0.0175
     17 C12         2.1216   -1.7358   -1.3330 C.ar      1 <0>         0.2190
     18 C13        -1.8882   -2.5452   -0.8030 C.ar      1 <0>        -0.0579
     19 C14        -0.4677   -2.6832    1.1461 C.ar      1 <0>        -0.0579
     20 C15        -3.5312    1.7092   -2.1154 C.ar      1 <0>        -0.0608
     21 C16        -2.9881   -0.3384    1.5263 C.ar      1 <0>        -0.0537
     22 C17         3.4652   -0.7338    0.8223 C.ar      1 <0>         0.0019
     23 C18        -4.6361    1.2754   -1.3824 C.ar      1 <0>        -0.0540
     24 C19         4.1217   -1.4495   -0.2008 C.ar      1 <0>         0.0749
     25 C20         2.2709    3.8528   -0.1051 C.3       1 <0>        -0.0130
     26 C21         0.5001    5.4757   -0.0522 C.3       1 <0>        -0.0130
     27 C22        -5.5672    0.1480    0.5836 C.ar      1 <0>        -0.0540
     28 C23        -2.5899   -3.6709   -0.3714 C.ar      1 <0>        -0.0615
     29 C24        -1.1693   -3.8088    1.5780 C.ar      1 <0>        -0.0615
     30 C25        -4.0931   -0.7723    2.2590 C.ar      1 <0>        -0.0612
     31 C26        -2.2304   -4.3026    0.8191 C.ar      1 <0>        -0.0617
     32 C27        -5.3803   -0.5297    1.7886 C.ar      1 <0>        -0.0612
     33 C28         4.1911   -0.2334    1.9166 C.ar      1 <0>        -0.0386
     34 C29         5.4963   -1.6395   -0.0887 C.ar      1 <0>        -0.0346
     35 C30         5.5650   -0.4378    2.0030 C.ar      1 <0>         0.0186
     36 C31         6.2183   -1.1417    0.9987 C.ar      1 <0>        -0.0457
     37 C32         2.2970   -2.9483   -3.3715 C.3       1 <0>         0.0804
     38 H1         -0.2461   -0.7924   -1.5944 H         1 <0>         0.0430
     39 H2          1.3056    1.5171   -0.1208 H         1 <0>         0.0309
     40 H3          0.4227    1.6992   -1.5928 H         1 <0>         0.0309
     41 H4         -0.0057    3.1410    1.0991 H         1 <0>         0.0427
     42 H5         -1.0357    3.3998   -0.2977 H         1 <0>         0.0427
     43 H6         -0.9688    1.3808    1.7821 H         1 <0>         0.2107
     44 H7         -1.4366    1.7930   -2.2884 H         1 <0>         0.0621
     45 H8          1.5848   -0.0315    1.5231 H         1 <0>         0.0629
     46 H9         -2.1733   -2.0653   -1.7338 H         1 <0>         0.0620
     47 H10         0.3349   -2.3125    1.7722 H         1 <0>         0.0620
     48 H11        -3.6773    2.2280   -3.0586 H         1 <0>         0.0618
     49 H12        -2.0629   -0.6446    1.9818 H         1 <0>         0.0624
     50 H13        -5.6331    1.4743   -1.7703 H         1 <0>         0.0624
     51 H14         2.6805    2.9910   -0.6413 H         1 <0>         0.0391
     52 H15         2.9308    4.6884   -0.3690 H         1 <0>         0.0391
     53 H16         2.3631    3.6852    0.9744 H         1 <0>         0.0391
     54 H17         0.5387    5.5645    1.0397 H         1 <0>         0.0391
     55 H18         1.1536    6.2418   -0.4844 H         1 <0>         0.0391
     56 H19        -0.5176    5.7125   -0.3824 H         1 <0>         0.0391
     57 H20        -6.5823    0.3260    0.2346 H         1 <0>         0.0624
     58 H21        -3.4162   -4.0551   -0.9622 H         1 <0>         0.0618
     59 H22        -0.8938   -4.2972    2.5081 H         1 <0>         0.0618
     60 H23        -3.9507   -1.3122    3.1911 H         1 <0>         0.0618
     61 H24        -2.7780   -5.1778    1.1562 H         1 <0>         0.0618
     62 H25        -6.2399   -0.8708    2.3578 H         1 <0>         0.0618
     63 H26         3.6747    0.3182    2.7004 H         1 <0>         0.0635
     64 H27         6.0310   -2.1877   -0.8623 H         1 <0>         0.0639
     65 H28         7.2905   -1.3146    1.0428 H         1 <0>         0.0629
     66 H29         1.6490   -3.2964   -4.1813 H         1 <0>         0.0660
     67 H30         3.0525   -2.2854   -3.8066 H         1 <0>         0.0660
     68 H31         2.7643   -3.8266   -2.9135 H         1 <0>         0.0660
@<TRIPOS>BOND
     1    1   35 1
     2    2    6 1
     3    2   43 1
     4    3   17 1
     5    3   37 1
     6    4   11 1
     7    4   25 1
     8    4   26 1
     9    5   17 ar
    10    5   24 ar
    11    6    7 1
    12    6    8 1
    13    6    9 1
    14    7   10 1
    15    7   12 1
    16    7   38 1
    17    8   11 1
    18    8   39 1
    19    8   40 1
    20    9   13 ar
    21    9   14 ar
    22   10   15 ar
    23   10   17 ar
    24   11   41 1
    25   11   42 1
    26   12   18 ar
    27   12   19 ar
    28   13   16 ar
    29   13   21 ar
    30   14   20 ar
    31   14   44 1
    32   15   22 ar
    33   15   45 1
    34   16   23 ar
    35   16   27 ar
    36   18   28 ar
    37   18   46 1
    38   19   29 ar
    39   19   47 1
    40   20   23 ar
    41   20   48 1
    42   21   30 ar
    43   21   49 1
    44   22   24 ar
    45   22   33 ar
    46   23   50 1
    47   24   34 ar
    48   25   51 1
    49   25   52 1
    50   25   53 1
    51   26   54 1
    52   26   55 1
    53   26   56 1
    54   27   32 ar
    55   27   57 1
    56   28   31 ar
    57   28   58 1
    58   29   31 ar
    59   29   59 1
    60   30   32 ar
    61   30   60 1
    62   31   61 1
    63   32   62 1
    64   33   35 ar
    65   33   63 1
    66   34   36 ar
    67   34   64 1
    68   35   36 ar
    69   36   65 1
    70   37   66 1
    71   37   67 1
    72   37   68 1
