@<TRIPOS>MOLECULE
DB08816
   64    68     0     0     0
SMALL
USER_CHARGES

@<TRIPOS>ATOM
      1 S1         -0.6423    1.6512   -1.0326 S.3       1 <0>        -0.0859
      2 F1         -5.1664    3.3173   -1.1969 F         1 <0>        -0.2025
      3 F2         -7.8948    3.3950   -1.3514 F         1 <0>        -0.2025
      4 O1          4.8483    0.1612   -0.1831 O.3       1 <0>        -0.3716
      5 O2          3.8090   -3.6312   -2.0951 O.3       1 <0>        -0.3870
      6 O3          4.3772   -1.1414   -2.9159 O.3       1 <0>        -0.3866
      7 O4          6.7971    2.1162    0.2732 O.3       1 <0>        -0.3927
      8 N1         -3.1068   -2.1255    1.2581 N.pl3     1 <0>        -0.3237
      9 N2          1.3201   -2.8474    0.3151 N.pl3     1 <0>        -0.2207
     10 N3          0.8082   -3.9339    0.9187 N.2       1 <0>        -0.0628
     11 N4         -0.4746   -3.6835    1.1746 N.2       1 <0>        -0.1243
     12 N5         -1.8466   -0.4013    0.1746 N.ar      1 <0>        -0.2048
     13 N6          0.5179   -0.6597   -0.3828 N.ar      1 <0>        -0.2006
     14 C1         -5.2998   -1.3664    0.1206 C.3       1 <0>         0.0043
     15 C2         -4.3555   -1.3650    1.2888 C.3       1 <0>         0.0295
     16 C3         -5.6856   -2.0542    1.3974 C.3       1 <0>        -0.0254
     17 C4          2.7237   -2.8186   -0.0937 C.3       1 <0>         0.0873
     18 C5          2.9322   -2.6123   -1.6122 C.3       1 <0>         0.1059
     19 C6          3.5416   -1.7124    0.6028 C.3       1 <0>         0.0011
     20 C7          4.4724   -1.1720   -0.4778 C.3       1 <0>         0.0891
     21 C8          3.6108   -1.2471   -1.7307 C.3       1 <0>         0.1091
     22 C9         -5.9845   -0.1095   -0.2666 C.ar      1 <0>        -0.0396
     23 C10        -1.9036   -1.6433    0.7153 C.ar      1 <0>         0.1530
     24 C11         0.3845   -1.8740    0.1678 C.ar      1 <0>         0.1848
     25 C12        -0.7554   -2.4252    0.7220 C.ar      1 <0>         0.1710
     26 C13        -5.2399    1.0385   -0.5553 C.ar      1 <0>        -0.0201
     27 C14        -7.3797   -0.0636   -0.3476 C.ar      1 <0>        -0.0554
     28 C15         5.5259    0.2475    1.0627 C.3       1 <0>         0.0712
     29 C16        -5.8842    2.2203   -0.9213 C.ar      1 <0>         0.1587
     30 C17        -8.0241    1.1181   -0.7134 C.ar      1 <0>        -0.0233
     31 C18        -0.6572    0.0072   -0.3331 C.ar      1 <0>         0.1920
     32 C19        -7.2762    2.2600   -1.0003 C.ar      1 <0>         0.1584
     33 C20         5.9226    1.6900    1.3111 C.3       1 <0>         0.0676
     34 C21         0.6098    2.4116    0.0226 C.3       1 <0>         0.0009
     35 C22         0.8272    3.8683   -0.3712 C.3       1 <0>        -0.0464
     36 C23         1.8782    4.5238    0.5130 C.3       1 <0>        -0.0645
     37 H1         -5.0401   -2.0276   -0.7039 H         1 <0>         0.0367
     38 H2         -4.2528   -0.4574    1.8763 H         1 <0>         0.0504
     39 H3         -5.7049   -3.1379    1.3974 H         1 <0>         0.0290
     40 H4         -6.4259   -1.6031    2.0477 H         1 <0>         0.0290
     41 H5          3.1388   -3.7926    0.2009 H         1 <0>         0.0573
     42 H6          2.0109   -2.6673   -2.2005 H         1 <0>         0.0641
     43 H7          4.1023   -2.1334    1.4455 H         1 <0>         0.0312
     44 H8          2.9030   -0.9205    1.0123 H         1 <0>         0.0312
     45 H9          5.3736   -1.7885   -0.5907 H         1 <0>         0.0623
     46 H10         2.8708   -0.4388   -1.7356 H         1 <0>         0.0646
     47 H11        -3.0730   -3.0605    1.6515 H         1 <0>         0.1478
     48 H12        -4.1555    1.0252   -0.5035 H         1 <0>         0.0650
     49 H13        -7.9762   -0.9465   -0.1319 H         1 <0>         0.0621
     50 H14         4.0057   -3.4254   -3.0250 H         1 <0>         0.2100
     51 H15         4.8612   -0.2991   -2.8749 H         1 <0>         0.2100
     52 H16         6.4225   -0.3821    1.0268 H         1 <0>         0.0583
     53 H17         4.8890   -0.0690    1.8936 H         1 <0>         0.0583
     54 H18        -9.1077    1.1492   -0.7761 H         1 <0>         0.0647
     55 H19         5.0425    2.3406    1.2958 H         1 <0>         0.0580
     56 H20         6.4372    1.7924    2.2710 H         1 <0>         0.0580
     57 H21         1.5518    1.8603   -0.0724 H         1 <0>         0.0381
     58 H22         0.2848    2.3481    1.0669 H         1 <0>         0.0381
     59 H23         7.0305    3.0416    0.4597 H         1 <0>         0.2095
     60 H24        -0.1091    4.4327   -0.2812 H         1 <0>         0.0271
     61 H25         1.1541    3.9374   -1.4159 H         1 <0>         0.0271
     62 H26         1.5731    4.5063    1.5642 H         1 <0>         0.0230
     63 H27         2.0232    5.5679    0.2187 H         1 <0>         0.0230
     64 H28         2.8406    4.0093    0.4256 H         1 <0>         0.0230
@<TRIPOS>BOND
     1    1   31 1
     2    1   34 1
     3    2   29 1
     4    3   32 1
     5    4   20 1
     6    4   28 1
     7    5   18 1
     8    5   50 1
     9    6   21 1
    10    6   51 1
    11    7   33 1
    12    7   59 1
    13    8   15 1
    14    8   23 1
    15    8   47 1
    16    9   10 1
    17    9   17 1
    18    9   24 2
    19   10   11 1
    20   11   25 2
    21   12   23 ar
    22   12   31 ar
    23   13   24 ar
    24   13   31 ar
    25   14   15 1
    26   14   16 1
    27   14   22 1
    28   14   37 1
    29   15   16 1
    30   15   38 1
    31   16   39 1
    32   16   40 1
    33   17   18 1
    34   17   19 1
    35   17   41 1
    36   18   21 1
    37   18   42 1
    38   19   20 1
    39   19   43 1
    40   19   44 1
    41   20   21 1
    42   20   45 1
    43   21   46 1
    44   22   26 ar
    45   22   27 ar
    46   23   25 ar
    47   24   25 ar
    48   26   29 ar
    49   26   48 1
    50   27   30 ar
    51   27   49 1
    52   28   33 1
    53   28   52 1
    54   28   53 1
    55   29   32 ar
    56   30   32 ar
    57   30   54 1
    58   33   55 1
    59   33   56 1
    60   34   35 1
    61   34   57 1
    62   34   58 1
    63   35   36 1
    64   35   60 1
    65   35   61 1
    66   36   62 1
    67   36   63 1
    68   36   64 1
