@<TRIPOS>MOLECULE
DB08873
   82    84     0     0     0
SMALL
USER_CHARGES

@<TRIPOS>ATOM
      1 O1         -2.6399   -0.3092    1.4723 O.2       1 <0>        -0.2737
      2 O2         -0.2811    1.1991   -0.6907 O.2       1 <0>        -0.2735
      3 O3         -6.9958   -1.4739   -0.7375 O.2       1 <0>        -0.2852
      4 O4          3.8709   -0.3611    0.9696 O.2       1 <0>        -0.2528
      5 O5         -5.4919   -3.8813   -0.8846 O.2       1 <0>        -0.2672
      6 N1         -0.1472   -0.6861    0.6480 N.am      1 <0>        -0.2878
      7 N2         -3.4630   -0.9357   -0.6131 N.am      1 <0>        -0.3036
      8 N3          2.4757    1.2165   -0.0097 N.am      1 <0>        -0.2876
      9 N4          4.4827    0.6826   -1.0102 N.am      1 <0>        -0.2947
     10 N5         -4.8253   -3.0220    1.1754 N.am      1 <0>        -0.3229
     11 C1         -1.0523   -2.8448    0.4547 C.3       1 <0>        -0.0037
     12 C2          0.2312   -3.6133    0.2840 C.3       1 <0>        -0.0250
     13 C3         -0.0437   -2.8496    1.5514 C.3       1 <0>        -0.0142
     14 C4         -1.1937   -1.4412   -0.0486 C.3       1 <0>         0.1058
     15 C5          0.4685   -1.4573    1.7346 C.3       1 <0>         0.0192
     16 C6          0.2050   -5.1038    0.2924 C.3       1 <0>        -0.0592
     17 C7          1.2473   -3.0431   -0.6457 C.3       1 <0>        -0.0592
     18 C8         -2.4922   -0.8253    0.3676 C.2       1 <0>         0.2344
     19 C9          0.2551    0.5737    0.2259 C.2       1 <0>         0.2371
     20 C10         1.4244    1.1688    0.9693 C.3       1 <0>         0.1058
     21 C11         1.1054    2.5333    1.6251 C.3       1 <0>        -0.0108
     22 C12        -4.8109   -0.4411   -0.4505 C.3       1 <0>         0.0909
     23 C13        -5.1591    0.6008   -1.5160 C.3       1 <0>        -0.0242
     24 C14        -4.1633    1.7569   -1.5025 C.3       1 <0>        -0.0390
     25 C15         2.3518    3.0659    2.3606 C.3       1 <0>        -0.0579
     26 C16         0.7321    3.5496    0.5257 C.3       1 <0>        -0.0579
     27 C17        -0.0613    2.4508    2.6279 C.3       1 <0>        -0.0579
     28 C18        -5.8037   -1.5922   -0.4827 C.2       1 <0>         0.2369
     29 C19        -4.6563    3.0435   -2.1967 C.3       1 <0>        -0.0501
     30 C20        -4.1342    2.5676   -0.1901 C.3       1 <0>        -0.0501
     31 C21        -3.9648    3.8287   -1.0626 C.3       1 <0>        -0.0526
     32 C22         3.6330    0.4391    0.0659 C.2       1 <0>         0.3006
     33 C23        -5.3428   -2.9665   -0.0917 C.2       1 <0>         0.2789
     34 C24         5.7495    0.0095   -1.1749 C.3       1 <0>         0.0276
     35 C25         6.3915    0.4539   -2.4942 C.3       1 <0>        -0.0442
     36 C26         6.6667    0.3745   -0.0030 C.3       1 <0>        -0.0442
     37 C27         5.5187   -1.5058   -1.2010 C.3       1 <0>        -0.0442
     38 H1         -1.9746   -3.3955    0.5638 H         1 <0>         0.0332
     39 H2         -0.2500   -3.3799    2.4685 H         1 <0>         0.0325
     40 H3         -1.0493   -1.3568   -1.1313 H         1 <0>         0.0600
     41 H4          1.5584   -1.4489    1.6764 H         1 <0>         0.0468
     42 H5          0.1408   -1.0298    2.6873 H         1 <0>         0.0468
     43 H6         -0.0414   -5.4928   -0.7012 H         1 <0>         0.0235
     44 H7          1.1798   -5.5065    0.5870 H         1 <0>         0.0235
     45 H8         -0.5404   -5.4934    0.9946 H         1 <0>         0.0235
     46 H9          1.1033   -3.4634   -1.6485 H         1 <0>         0.0235
     47 H10         1.2752   -1.9626   -0.7796 H         1 <0>         0.0235
     48 H11         2.2512   -3.3382   -0.3170 H         1 <0>         0.0235
     49 H12         1.7595    0.5325    1.7868 H         1 <0>         0.0600
     50 H13        -3.2410   -1.4208   -1.4779 H         1 <0>         0.1495
     51 H14        -4.9034    0.0080    0.5454 H         1 <0>         0.0582
     52 H15         2.3409    1.7745   -0.8472 H         1 <0>         0.1510
     53 H16        -5.1609    0.1383   -2.5114 H         1 <0>         0.0290
     54 H17        -6.1783    0.9699   -1.3435 H         1 <0>         0.0290
     55 H18        -3.1607    1.4638   -1.8436 H         1 <0>         0.0301
     56 H19         2.6821    2.3622    3.1328 H         1 <0>         0.0236
     57 H20         3.1899    3.2292    1.6743 H         1 <0>         0.0236
     58 H21         2.1433    4.0225    2.8535 H         1 <0>         0.0236
     59 H22        -0.2543    3.3682    0.0907 H         1 <0>         0.0236
     60 H23         0.6741    4.5577    0.9572 H         1 <0>         0.0236
     61 H24         1.4706    3.6076   -0.2788 H         1 <0>         0.0236
     62 H25        -0.9914    2.1388    2.1412 H         1 <0>         0.0236
     63 H26        -0.2481    3.4217    3.1005 H         1 <0>         0.0236
     64 H27         0.1586    1.7290    3.4223 H         1 <0>         0.0236
     65 H28        -4.2623    3.2216   -3.2007 H         1 <0>         0.0268
     66 H29        -5.7447    3.1743   -2.2149 H         1 <0>         0.0268
     67 H30        -5.0698    2.5600    0.3816 H         1 <0>         0.0268
     68 H31        -3.3025    2.3534    0.4859 H         1 <0>         0.0268
     69 H32        -4.4869    4.7230   -0.7144 H         1 <0>         0.0265
     70 H33        -2.9193    4.0818   -1.2736 H         1 <0>         0.0265
     71 H34         4.2058    1.3844   -1.6903 H         1 <0>         0.1507
     72 H35        -4.4877   -3.8968    1.5631 H         1 <0>         0.1453
     73 H36        -4.7616   -2.2059    1.7754 H         1 <0>         0.1453
     74 H37         7.3588   -0.0354   -2.6537 H         1 <0>         0.0250
     75 H38         6.5573    1.5375   -2.5081 H         1 <0>         0.0250
     76 H39         5.7474    0.2129   -3.3479 H         1 <0>         0.0250
     77 H40         7.6662   -0.0536   -0.1434 H         1 <0>         0.0250
     78 H41         6.7813    1.4616    0.0837 H         1 <0>         0.0250
     79 H42         6.2974    0.0088    0.9600 H         1 <0>         0.0250
     80 H43         5.1955   -1.9137   -0.2390 H         1 <0>         0.0250
     81 H44         6.4435   -2.0327   -1.4646 H         1 <0>         0.0250
     82 H45         4.7610   -1.7778   -1.9456 H         1 <0>         0.0250
@<TRIPOS>BOND
     1    1   18 2
     2    2   19 2
     3    3   28 2
     4    4   32 2
     5    5   33 2
     6    6   14 1
     7    6   15 1
     8    6   19 am
     9    7   18 am
    10    7   22 1
    11    7   50 1
    12    8   20 1
    13    8   32 am
    14    8   52 1
    15    9   32 am
    16    9   34 1
    17    9   71 1
    18   10   33 am
    19   10   72 1
    20   10   73 1
    21   11   12 1
    22   11   13 1
    23   11   14 1
    24   11   38 1
    25   12   13 1
    26   12   16 1
    27   12   17 1
    28   13   15 1
    29   13   39 1
    30   14   18 1
    31   14   40 1
    32   15   41 1
    33   15   42 1
    34   16   43 1
    35   16   44 1
    36   16   45 1
    37   17   46 1
    38   17   47 1
    39   17   48 1
    40   19   20 1
    41   20   21 1
    42   20   49 1
    43   21   25 1
    44   21   26 1
    45   21   27 1
    46   22   23 1
    47   22   28 1
    48   22   51 1
    49   23   24 1
    50   23   53 1
    51   23   54 1
    52   24   29 1
    53   24   30 1
    54   24   55 1
    55   25   56 1
    56   25   57 1
    57   25   58 1
    58   26   59 1
    59   26   60 1
    60   26   61 1
    61   27   62 1
    62   27   63 1
    63   27   64 1
    64   28   33 1
    65   29   31 1
    66   29   65 1
    67   29   66 1
    68   30   31 1
    69   30   67 1
    70   30   68 1
    71   31   69 1
    72   31   70 1
    73   34   35 1
    74   34   36 1
    75   34   37 1
    76   35   74 1
    77   35   75 1
    78   35   76 1
    79   36   77 1
    80   36   78 1
    81   36   79 1
    82   37   80 1
    83   37   81 1
    84   37   82 1
