@<TRIPOS>MOLECULE
DB08867
   67    71     0     0     0
SMALL
USER_CHARGES

@<TRIPOS>ATOM
      1 O1          3.3083    2.6251   -1.3857 O.3       1 <0>        -0.3805
      2 O2          1.7216    4.9569    0.5403 O.2       1 <0>        -0.2946
      3 O3          1.9252   -6.3972   -1.6318 O.2       1 <0>        -0.2927
      4 N1         -5.4136    0.3413    0.5114 N.pl3     1 <0>        -0.3360
      5 C1          1.4794    1.7002    0.0173 C.3       1 <0>         0.0078
      6 C2          2.4209    0.6131    0.5784 C.3       1 <0>        -0.0259
      7 C3          2.5116    2.8381   -0.2244 C.3       1 <0>         0.1289
      8 C4          1.6883   -0.6555    1.0285 C.3       1 <0>        -0.0150
      9 C5          0.8108    1.1052   -1.2328 C.3       1 <0>        -0.0337
     10 C6          3.2554    1.3668    1.6122 C.3       1 <0>        -0.0460
     11 C7          3.4447    2.7702    1.0050 C.3       1 <0>        -0.0162
     12 C8          0.0769   -0.2515   -0.9964 C.3       1 <0>         0.0066
     13 C9          0.8857   -1.2536   -0.1463 C.2       1 <0>        -0.0553
     14 C10         0.4076    2.1810    1.0303 C.3       1 <0>        -0.0562
     15 C11         2.6849   -1.6469    1.6564 C.3       1 <0>        -0.0422
     16 C12         0.8881   -2.5916   -0.3893 C.2       1 <0>        -0.0436
     17 C13         1.9290    4.2073   -0.4126 C.2       1 <0>         0.1621
     18 C14         2.0522   -3.0196    1.8129 C.3       1 <0>        -0.0268
     19 C15        -1.3908   -0.0924   -0.5928 C.ar      1 <0>        -0.0401
     20 C16         1.6358   -3.5278    0.4603 C.2       1 <0>        -0.0409
     21 C17         0.0884   -3.2926   -1.4698 C.3       1 <0>        -0.0204
     22 C18         1.6132    4.6201   -1.8249 C.3       1 <0>        -0.0031
     23 C19         1.9531   -4.7744    0.0722 C.2       1 <0>        -0.0158
     24 C20         0.9439   -4.2936   -2.2358 C.3       1 <0>         0.0139
     25 C21        -2.2259    0.7370   -1.3355 C.ar      1 <0>        -0.0563
     26 C22        -1.8818   -0.7789    0.5139 C.ar      1 <0>        -0.0563
     27 C23         1.6115   -5.2599   -1.2877 C.2       1 <0>         0.1567
     28 C24        -3.5637    0.8812   -0.9683 C.ar      1 <0>        -0.0404
     29 C25        -3.2198   -0.6348    0.8813 C.ar      1 <0>        -0.0404
     30 C26        -4.0608    0.1952    0.1400 C.ar      1 <0>         0.0292
     31 C27        -5.8126    0.2063    1.8983 C.3       1 <0>         0.0004
     32 C28        -6.4244    0.6145   -0.4908 C.3       1 <0>         0.0004
     33 H1          3.1172    0.3018   -0.2176 H         1 <0>         0.0313
     34 H2          0.9665   -0.4029    1.8149 H         1 <0>         0.0349
     35 H3          1.5883    0.9109   -1.9857 H         1 <0>         0.0280
     36 H4          0.1551    1.8518   -1.6895 H         1 <0>         0.0280
     37 H5          4.2204    0.8814    1.7908 H         1 <0>         0.0269
     38 H6          2.7365    1.4335    2.5751 H         1 <0>         0.0269
     39 H7          3.2080    3.5131    1.7744 H         1 <0>         0.0297
     40 H8          4.4958    2.9225    0.7324 H         1 <0>         0.0297
     41 H9          0.0194   -0.6663   -2.0113 H         1 <0>         0.0394
     42 H10         0.8434    2.6861    1.8983 H         1 <0>         0.0236
     43 H11        -0.2821    2.8885    0.5557 H         1 <0>         0.0236
     44 H12        -0.1995    1.3661    1.4264 H         1 <0>         0.0236
     45 H13         3.0052   -1.2809    2.6393 H         1 <0>         0.0274
     46 H14         3.5893   -1.7269    1.0381 H         1 <0>         0.0274
     47 H15         1.1761   -2.9624    2.4714 H         1 <0>         0.0313
     48 H16         2.7701   -3.6953    2.2931 H         1 <0>         0.0313
     49 H17         4.0660    2.0593   -1.1638 H         1 <0>         0.2108
     50 H18        -0.7453   -3.8219   -0.9871 H         1 <0>         0.0317
     51 H19        -0.3676   -2.6128   -2.1915 H         1 <0>         0.0317
     52 H20         2.5344    4.8695   -2.3573 H         1 <0>         0.0307
     53 H21         1.0716    3.8327   -2.3512 H         1 <0>         0.0307
     54 H22         0.9737    5.5078   -1.8028 H         1 <0>         0.0307
     55 H23         2.4993   -5.4556    0.7158 H         1 <0>         0.0655
     56 H24         1.7213   -3.7871   -2.8185 H         1 <0>         0.0348
     57 H25         0.3077   -4.8628   -2.9223 H         1 <0>         0.0348
     58 H26        -1.8698    1.2621   -2.2165 H         1 <0>         0.0621
     59 H27        -1.2709   -1.4320    1.1269 H         1 <0>         0.0621
     60 H28        -4.1901    1.5401   -1.5630 H         1 <0>         0.0636
     61 H29        -3.5774   -1.1909    1.7432 H         1 <0>         0.0636
     62 H30        -5.1068    0.7083    2.5698 H         1 <0>         0.0428
     63 H31        -5.8875   -0.8492    2.1796 H         1 <0>         0.0428
     64 H32        -6.7926    0.6644    2.0736 H         1 <0>         0.0428
     65 H33        -6.2708    0.0089   -1.3911 H         1 <0>         0.0428
     66 H34        -6.4215    1.6743   -0.7662 H         1 <0>         0.0428
     67 H35        -7.4264    0.3744   -0.1176 H         1 <0>         0.0428
@<TRIPOS>BOND
     1    1    7 1
     2    1   49 1
     3    2   17 2
     4    3   27 2
     5    4   30 1
     6    4   31 1
     7    4   32 1
     8    5    6 1
     9    5    7 1
    10    5    9 1
    11    5   14 1
    12    6    8 1
    13    6   10 1
    14    6   33 1
    15    7   11 1
    16    7   17 1
    17    8   13 1
    18    8   15 1
    19    8   34 1
    20    9   12 1
    21    9   35 1
    22    9   36 1
    23   10   11 1
    24   10   37 1
    25   10   38 1
    26   11   39 1
    27   11   40 1
    28   12   13 1
    29   12   19 1
    30   12   41 1
    31   13   16 2
    32   14   42 1
    33   14   43 1
    34   14   44 1
    35   15   18 1
    36   15   45 1
    37   15   46 1
    38   16   20 1
    39   16   21 1
    40   17   22 1
    41   18   20 1
    42   18   47 1
    43   18   48 1
    44   19   25 ar
    45   19   26 ar
    46   20   23 2
    47   21   24 1
    48   21   50 1
    49   21   51 1
    50   22   52 1
    51   22   53 1
    52   22   54 1
    53   23   27 1
    54   23   55 1
    55   24   27 1
    56   24   56 1
    57   24   57 1
    58   25   28 ar
    59   25   58 1
    60   26   29 ar
    61   26   59 1
    62   28   30 ar
    63   28   60 1
    64   29   30 ar
    65   29   61 1
    66   31   62 1
    67   31   63 1
    68   31   64 1
    69   32   65 1
    70   32   66 1
    71   32   67 1
