@<TRIPOS>MOLECULE
DB08864
   46    48     0     0     0
SMALL
USER_CHARGES

@<TRIPOS>ATOM
      1 N1          0.4232    0.0693   -0.1321 N.pl3     1 <0>        -0.2989
      2 N2         -1.7855   -0.7305    0.2582 N.ar      1 <0>        -0.1992
      3 N3         -3.9452   -1.5567    0.6564 N.pl3     1 <0>        -0.2836
      4 N4         -2.1217   -2.9737    1.0722 N.ar      1 <0>        -0.2225
      5 N5          9.4321    1.1342   -0.0230 N.1       1 <0>        -0.1915
      6 N6         -7.7979    3.7668   -1.0566 N.1       1 <0>        -0.1909
      7 C1          1.8226    0.1404   -0.2249 C.ar      1 <0>         0.0383
      8 C2          2.5823    0.5810    0.8653 C.ar      1 <0>        -0.0285
      9 C3          2.4728   -0.2276   -1.4086 C.ar      1 <0>        -0.0285
     10 C4          4.6125    0.2840   -0.4101 C.ar      1 <0>        -0.0238
     11 C5          3.9722    0.6525    0.7731 C.ar      1 <0>        -0.0499
     12 C6          3.8627   -0.1559   -1.5009 C.ar      1 <0>        -0.0499
     13 C7          1.9246    0.9828    2.1456 C.3       1 <0>        -0.0379
     14 C8          1.6953   -0.7022   -2.5934 C.3       1 <0>        -0.0379
     15 C9         -0.4567   -0.9627    0.2770 C.ar      1 <0>         0.1280
     16 C10         6.0621    0.3578   -0.5069 C.2       1 <0>        -0.0444
     17 C11         0.1075   -2.1574    0.6752 C.ar      1 <0>        -0.0033
     18 C12        -2.5521   -1.7634    0.6625 C.ar      1 <0>         0.2212
     19 C13        -4.7453   -0.4510    0.3009 C.ar      1 <0>         0.0336
     20 C14        -0.7824   -3.1369    1.0660 C.ar      1 <0>         0.0344
     21 C15        -6.0284   -0.6531   -0.2077 C.ar      1 <0>        -0.0393
     22 C16        -4.2530    0.8448    0.4567 C.ar      1 <0>        -0.0393
     23 C17         6.8691    1.0964    0.2874 C.2       1 <0>         0.0159
     24 C18        -6.8191    0.4404   -0.5601 C.ar      1 <0>        -0.0426
     25 C19        -5.0439    1.9384    0.1040 C.ar      1 <0>        -0.0426
     26 C20        -6.3270    1.7363   -0.4044 C.ar      1 <0>         0.0519
     27 C21         8.2800    1.1154    0.1143 C.1       1 <0>         0.0914
     28 C22        -7.1382    2.8561   -0.7641 C.1       1 <0>         0.0992
     29 H1          4.5325    0.9778    1.6452 H         1 <0>         0.0627
     30 H2          4.3607   -0.4435   -2.4247 H         1 <0>         0.0627
     31 H3         -0.0558    0.9195   -0.4116 H         1 <0>         0.1536
     32 H4          2.6359    1.4342    2.8458 H         1 <0>         0.0278
     33 H5          1.1429    1.7279    1.9631 H         1 <0>         0.0278
     34 H6          1.4849    0.1100    2.6389 H         1 <0>         0.0278
     35 H7          2.3329   -0.8249   -3.4758 H         1 <0>         0.0278
     36 H8          1.2336   -1.6724   -2.3835 H         1 <0>         0.0278
     37 H9          0.9167    0.0199   -2.8612 H         1 <0>         0.0278
     38 H10         6.5117   -0.2339   -1.3030 H         1 <0>         0.0630
     39 H11         1.1727   -2.3493    0.6925 H         1 <0>         0.0667
     40 H12        -4.4666   -2.4086    0.8401 H         1 <0>         0.1550
     41 H13        -0.4327   -4.1097    1.3952 H         1 <0>         0.0832
     42 H14        -6.4231   -1.6579   -0.3349 H         1 <0>         0.0636
     43 H15        -3.2791    1.0502    0.8882 H         1 <0>         0.0636
     44 H16         6.4777    1.7254    1.0788 H         1 <0>         0.0733
     45 H17        -7.8173    0.2666   -0.9551 H         1 <0>         0.0631
     46 H18        -4.6502    2.9430    0.2401 H         1 <0>         0.0631
@<TRIPOS>BOND
     1    1    7 1
     2    1   15 1
     3    1   31 1
     4    2   15 ar
     5    2   18 ar
     6    3   18 1
     7    3   19 1
     8    3   40 1
     9    4   18 ar
    10    4   20 ar
    11    5   27 3
    12    6   28 3
    13    7    8 ar
    14    7    9 ar
    15    8   11 ar
    16    8   13 1
    17    9   12 ar
    18    9   14 1
    19   10   11 ar
    20   10   12 ar
    21   10   16 1
    22   11   29 1
    23   12   30 1
    24   13   32 1
    25   13   33 1
    26   13   34 1
    27   14   35 1
    28   14   36 1
    29   14   37 1
    30   15   17 ar
    31   16   23 2
    32   16   38 1
    33   17   20 ar
    34   17   39 1
    35   19   21 ar
    36   19   22 ar
    37   20   41 1
    38   21   24 ar
    39   21   42 1
    40   22   25 ar
    41   22   43 1
    42   23   27 1
    43   23   44 1
    44   24   26 ar
    45   24   45 1
    46   25   26 ar
    47   25   46 1
    48   26   28 1
