@<TRIPOS>MOLECULE
DB08826
   19    19     0     0     0
SMALL
USER_CHARGES

@<TRIPOS>ATOM
      1 O1          1.1675    2.5513    0.0666 O.3       1 <0>        -0.5021
      2 O2          3.3801    0.8591    0.0484 O.2       1 <0>        -0.2839
      3 N1         -0.2979   -0.8462    0.0086 N.pl3     1 <0>        -0.3506
      4 C1         -0.1873    0.5658    0.0195 C.2       1 <0>         0.0610
      5 C2          1.0226    1.1818    0.0434 C.2       1 <0>         0.1831
      6 C3          0.8630   -1.6058   -0.0147 C.2       1 <0>         0.0083
      7 C4         -1.4607    1.3777    0.0180 C.3       1 <0>        -0.0206
      8 C5         -1.6012   -1.5157   -0.0014 C.3       1 <0>         0.0117
      9 C6          2.2651    0.3479    0.0305 C.2       1 <0>         0.2231
     10 C7          2.1070   -1.1216   -0.0067 C.2       1 <0>         0.0049
     11 H1          0.6975   -2.6777   -0.0359 H         1 <0>         0.0810
     12 H2         -1.3424    2.4078    0.3617 H         1 <0>         0.0293
     13 H3         -2.1995    0.9454    0.7014 H         1 <0>         0.0293
     14 H4         -1.8926    1.3979   -0.9878 H         1 <0>         0.0293
     15 H5         -2.1092   -1.3747    0.9586 H         1 <0>         0.0456
     16 H6         -1.5089   -2.5954   -0.1664 H         1 <0>         0.0456
     17 H7         -2.2352   -1.1258   -0.8052 H         1 <0>         0.0456
     18 H8          2.9841   -1.7549   -0.0226 H         1 <0>         0.0671
     19 H9          0.3482    2.9832   -0.2162 H         1 <0>         0.2924
@<TRIPOS>BOND
     1    1    5 1
     2    1   19 1
     3    2    9 2
     4    3    4 1
     5    3    6 2
     6    3    8 1
     7    4    5 2
     8    4    7 1
     9    5    9 1
    10    6   10 1
    11    6   11 1
    12    7   12 1
    13    7   13 1
    14    7   14 1
    15    8   15 1
    16    8   16 1
    17    8   17 1
    18    9   10 1
    19   10   18 1
