@<TRIPOS>MOLECULE
DB08868
   55    55     0     0     0
SMALL
USER_CHARGES

@<TRIPOS>ATOM
      1 O1          5.5655   -3.1115    1.1857 O.3       1 <0>        -0.3931
      2 O2          6.4550   -0.8358   -2.2981 O.3       1 <0>        -0.3931
      3 N1          6.7395   -0.4599    1.3642 N.3       1 <0>        -0.3210
      4 C1          6.1419   -0.9628    0.1184 C.3       1 <0>         0.0635
      5 C2          4.6477   -0.5413    0.0605 C.3       1 <0>        -0.0266
      6 C3          4.3765    0.9766    0.1149 C.3       1 <0>        -0.0259
      7 C4          6.2495   -2.5072    0.0941 C.3       1 <0>         0.0644
      8 C5          6.9654   -0.3827   -1.0498 C.3       1 <0>         0.0644
      9 C6         -3.6219    1.1614    0.0425 C.3       1 <0>        -0.0528
     10 C7         -2.1162    0.8915    0.1227 C.3       1 <0>        -0.0491
     11 C8         -4.5174   -0.0771   -0.0613 C.3       1 <0>        -0.0530
     12 C9          2.9172    1.2840    0.1286 C.ar      1 <0>        -0.0473
     13 C10        -1.2715    2.1673    0.1670 C.3       1 <0>        -0.0277
     14 C11        -6.0123    0.2484   -0.0517 C.3       1 <0>        -0.0531
     15 C12         0.2038    1.8555    0.1534 C.ar      1 <0>        -0.0473
     16 C13        -6.8571   -1.0277   -0.0668 C.3       1 <0>        -0.0533
     17 C14         2.2366    1.3852    1.3421 C.ar      1 <0>        -0.0583
     18 C15         2.2328    1.4704   -1.0725 C.ar      1 <0>        -0.0583
     19 C16         0.8718    1.6726    1.3545 C.ar      1 <0>        -0.0583
     20 C17         0.8679    1.7580   -1.0600 C.ar      1 <0>        -0.0583
     21 C18        -8.3511   -0.7055   -0.0904 C.3       1 <0>        -0.0559
     22 C19        -9.1931   -1.9705   -0.1400 C.3       1 <0>        -0.0653
     23 H1          4.1926   -0.9508   -0.8519 H         1 <0>         0.0288
     24 H2          4.1089   -1.0133    0.8944 H         1 <0>         0.0288
     25 H3          4.8390    1.4226    1.0031 H         1 <0>         0.0314
     26 H4          4.8409    1.4750   -0.7442 H         1 <0>         0.0314
     27 H5          5.8130   -2.9144   -0.8242 H         1 <0>         0.0576
     28 H6          7.2951   -2.8348    0.1314 H         1 <0>         0.0576
     29 H7          6.9554    0.7125   -1.0536 H         1 <0>         0.0576
     30 H8          8.0126   -0.7025   -0.9843 H         1 <0>         0.0576
     31 H9         -3.9174    1.7367    0.9292 H         1 <0>         0.0265
     32 H10        -3.8200    1.8058   -0.8235 H         1 <0>         0.0265
     33 H11        -1.8233    0.2864   -0.7450 H         1 <0>         0.0268
     34 H12        -1.9087    0.2792    1.0096 H         1 <0>         0.0268
     35 H13        -4.2676   -0.6247   -0.9784 H         1 <0>         0.0265
     36 H14        -4.2889   -0.7457    0.7780 H         1 <0>         0.0265
     37 H15        -1.5206    2.7518    1.0618 H         1 <0>         0.0313
     38 H16        -1.5170    2.8110   -0.6875 H         1 <0>         0.0313
     39 H17        -6.2551    0.8366    0.8414 H         1 <0>         0.0265
     40 H18        -6.2558    0.8675   -0.9235 H         1 <0>         0.0265
     41 H19         7.6962   -0.8021    1.4508 H         1 <0>         0.1189
     42 H20         6.8107    0.5563    1.3369 H         1 <0>         0.1189
     43 H21        -6.6253   -1.6344    0.8172 H         1 <0>         0.0265
     44 H22        -6.5976   -1.6278   -0.9475 H         1 <0>         0.0265
     45 H23         2.7579    1.2395    2.2845 H         1 <0>         0.0620
     46 H24         2.7510    1.3918   -2.0246 H         1 <0>         0.0620
     47 H25         0.3500    1.7470    2.3043 H         1 <0>         0.0620
     48 H26         0.3430    1.8993   -2.0005 H         1 <0>         0.0620
     49 H27        -8.5849   -0.0853   -0.9637 H         1 <0>         0.0263
     50 H28        -8.6211   -0.1266    0.8005 H         1 <0>         0.0263
     51 H29         5.9288   -2.7274    2.0018 H         1 <0>         0.2095
     52 H30         7.0121   -0.4457   -2.9929 H         1 <0>         0.2095
     53 H31        -9.0061   -2.6006    0.7355 H         1 <0>         0.0230
     54 H32       -10.2577   -1.7169   -0.1550 H         1 <0>         0.0230
     55 H33        -8.9706   -2.5551   -1.0383 H         1 <0>         0.0230
@<TRIPOS>BOND
     1    1    7 1
     2    1   51 1
     3    2    8 1
     4    2   52 1
     5    3    4 1
     6    3   41 1
     7    3   42 1
     8    4    5 1
     9    4    7 1
    10    4    8 1
    11    5    6 1
    12    5   23 1
    13    5   24 1
    14    6   12 1
    15    6   25 1
    16    6   26 1
    17    7   27 1
    18    7   28 1
    19    8   29 1
    20    8   30 1
    21    9   10 1
    22    9   11 1
    23    9   31 1
    24    9   32 1
    25   10   13 1
    26   10   33 1
    27   10   34 1
    28   11   14 1
    29   11   35 1
    30   11   36 1
    31   12   17 ar
    32   12   18 ar
    33   13   15 1
    34   13   37 1
    35   13   38 1
    36   14   16 1
    37   14   39 1
    38   14   40 1
    39   15   19 ar
    40   15   20 ar
    41   16   21 1
    42   16   43 1
    43   16   44 1
    44   17   19 ar
    45   17   45 1
    46   18   20 ar
    47   18   46 1
    48   19   47 1
    49   20   48 1
    50   21   22 1
    51   21   49 1
    52   21   50 1
    53   22   53 1
    54   22   54 1
    55   22   55 1
