@<TRIPOS>MOLECULE
DB08947
   53    53     0     0     0
SMALL
USER_CHARGES

@<TRIPOS>ATOM
      1 I1          0.4855    3.2450    0.1424 I         1 <0>        -0.0422
      2 I2          2.6533   -2.2783   -1.2990 I         1 <0>        -0.0411
      3 I3         -2.9943   -1.7080    0.9446 I         1 <0>        -0.0411
      4 O1         -3.1939    4.5116   -1.0862 O.3       1 <0>        -0.3931
      5 O2         -5.6918    1.1837   -0.4621 O.3       1 <0>        -0.3931
      6 O3          5.5462    0.3223   -1.9905 O.3       1 <0>        -0.3931
      7 O4          5.4239    1.4618    2.1488 O.3       1 <0>        -0.3931
      8 O5         -2.1387    1.6495    2.1410 O.2       1 <0>        -0.2701
      9 O6          2.6709    1.3056   -2.0648 O.2       1 <0>        -0.2701
     10 O7         -0.9300   -6.2148    1.3900 O.3       1 <0>        -0.3828
     11 O8         -0.7410   -3.6430    1.9841 O.2       1 <0>        -0.2726
     12 N1         -2.9608    1.9072   -0.0117 N.am      1 <0>        -0.3040
     13 N2          3.4934    1.0889    0.0920 N.am      1 <0>        -0.3040
     14 N3         -0.2979   -3.0165   -0.2379 N.am      1 <0>        -0.2816
     15 C1         -4.0657    2.7725    0.3332 C.3       1 <0>         0.0695
     16 C2          4.7854    1.6926   -0.1617 C.3       1 <0>         0.0695
     17 C3         -0.9819    0.5576    0.4184 C.ar      1 <0>         0.0654
     18 C4          1.2531    0.3321   -0.4709 C.ar      1 <0>         0.0654
     19 C5          0.2221    1.1356    0.0159 C.ar      1 <0>         0.0397
     20 C6         -0.1240   -1.6274   -0.1530 C.ar      1 <0>         0.0615
     21 C7          1.0800   -1.0494   -0.5553 C.ar      1 <0>         0.0487
     22 C8         -1.1549   -0.8240    0.3339 C.ar      1 <0>         0.0487
     23 C9         -2.0639    1.4007    0.9296 C.2       1 <0>         0.2465
     24 C10         2.5364    0.9470   -0.8978 C.2       1 <0>         0.2465
     25 C11        -4.3550    3.7335   -0.8176 C.3       1 <0>         0.0647
     26 C12        -5.3002    1.9414    0.6772 C.3       1 <0>         0.0647
     27 C13         5.7831    0.6315   -0.6216 C.3       1 <0>         0.0647
     28 C14         5.2834    2.4060    1.0933 C.3       1 <0>         0.0647
     29 C15        -0.5793   -3.9141    0.7975 C.2       1 <0>         0.2456
     30 C16        -0.6943   -5.3495    0.2905 C.3       1 <0>         0.1284
     31 C17        -1.8236   -5.5002   -0.7178 C.3       1 <0>        -0.0303
     32 H1         -3.7691    3.3536    1.2149 H         1 <0>         0.0544
     33 H2          4.6587    2.4371   -0.9575 H         1 <0>         0.0544
     34 H3         -2.8578    1.6248   -0.9827 H         1 <0>         0.1495
     35 H4          3.3038    0.7247    1.0217 H         1 <0>         0.1495
     36 H5         -4.6172    3.1991   -1.7371 H         1 <0>         0.0576
     37 H6         -5.1735    4.4133   -0.5592 H         1 <0>         0.0576
     38 H7         -5.0932    1.2478    1.4985 H         1 <0>         0.0576
     39 H8         -6.1345    2.5880    0.9678 H         1 <0>         0.0576
     40 H9          5.7029   -0.2899   -0.0347 H         1 <0>         0.0576
     41 H10         6.8095    1.0065   -0.5504 H         1 <0>         0.0576
     42 H11         6.2524    2.8839    0.9172 H         1 <0>         0.0576
     43 H12         4.5671    3.1705    1.4132 H         1 <0>         0.0576
     44 H13         0.1719   -3.4400   -1.0364 H         1 <0>         0.1549
     45 H14         0.2637   -5.6305   -0.1616 H         1 <0>         0.0687
     46 H15        -3.4170    5.1134   -1.8167 H         1 <0>         0.2095
     47 H16        -6.4780    0.6718   -0.2070 H         1 <0>         0.2095
     48 H17         6.1992   -0.3505   -2.2480 H         1 <0>         0.2095
     49 H18         5.7389    1.9509    2.9280 H         1 <0>         0.2095
     50 H19        -2.7829   -5.2133   -0.2730 H         1 <0>         0.0259
     51 H20        -1.9211   -6.5456   -1.0300 H         1 <0>         0.0259
     52 H21        -1.6648   -4.8881   -1.6107 H         1 <0>         0.0259
     53 H22        -0.8841   -7.1282    1.0595 H         1 <0>         0.2104
@<TRIPOS>BOND
     1    1   19 1
     2    2   21 1
     3    3   22 1
     4    4   25 1
     5    4   46 1
     6    5   26 1
     7    5   47 1
     8    6   27 1
     9    6   48 1
    10    7   28 1
    11    7   49 1
    12    8   23 2
    13    9   24 2
    14   10   30 1
    15   10   53 1
    16   11   29 2
    17   12   15 1
    18   12   23 am
    19   12   34 1
    20   13   16 1
    21   13   24 am
    22   13   35 1
    23   14   20 1
    24   14   29 am
    25   14   44 1
    26   15   25 1
    27   15   26 1
    28   15   32 1
    29   16   27 1
    30   16   28 1
    31   16   33 1
    32   17   19 ar
    33   17   22 ar
    34   17   23 1
    35   18   19 ar
    36   18   21 ar
    37   18   24 1
    38   20   21 ar
    39   20   22 ar
    40   25   36 1
    41   25   37 1
    42   26   38 1
    43   26   39 1
    44   27   40 1
    45   27   41 1
    46   28   42 1
    47   28   43 1
    48   29   30 1
    49   30   31 1
    50   30   45 1
    51   31   50 1
    52   31   51 1
    53   31   52 1
