@<TRIPOS>MOLECULE
DB08815
   71    77     0     0     0
SMALL
USER_CHARGES

@<TRIPOS>ATOM
      1 S1          8.6011   -0.6370    1.1685 S.3       1 <0>         0.0138
      2 O1         -3.4826   -1.1518   -2.3657 O.2       1 <0>        -0.2748
      3 O2         -3.5572    0.4676    1.9676 O.2       1 <0>        -0.2748
      4 N1         -3.1888   -0.2156   -0.2408 N.am      1 <0>        -0.2414
      5 N2          2.2560    1.2394    0.9731 N.3       1 <0>        -0.2991
      6 N3          4.9785    0.3770    0.8462 N.pl3     1 <0>        -0.3117
      7 N4          7.2760    0.3049    1.4836 N.2       1 <0>        -0.1944
      8 C1         -5.8587   -2.2992   -0.6992 C.3       1 <0>        -0.0289
      9 C2         -5.8945   -1.5174    1.3911 C.3       1 <0>        -0.0289
     10 C3         -5.3493   -0.8538   -0.8597 C.3       1 <0>         0.0503
     11 C4         -5.3736   -0.3156    0.5793 C.3       1 <0>         0.0503
     12 C5         -5.2857   -2.7162    0.6582 C.3       1 <0>        -0.0459
     13 C6         -7.3641   -2.2417   -0.3772 C.3       1 <0>        -0.0492
     14 C7         -7.3889   -1.7019    1.0651 C.3       1 <0>        -0.0492
     15 C8         -3.9051   -0.7673   -1.2841 C.2       1 <0>         0.2259
     16 C9         -3.9420    0.0441    0.8863 C.2       1 <0>         0.2259
     17 C10        -1.7567    0.0038   -0.3038 C.3       1 <0>         0.0254
     18 C11        -1.4105    1.4897   -0.1716 C.3       1 <0>        -0.0207
     19 C12         0.1173    1.7431   -0.1456 C.3       1 <0>        -0.0240
     20 C13        -2.0726    2.2705   -1.3202 C.3       1 <0>        -0.0485
     21 C14         0.4187    3.2509   -0.0937 C.3       1 <0>        -0.0487
     22 C15        -1.7556    3.7607   -1.2570 C.3       1 <0>        -0.0527
     23 C16         0.8073    1.0481    1.0315 C.3       1 <0>         0.0021
     24 C17        -0.2533    4.0089   -1.2334 C.3       1 <0>        -0.0527
     25 C18         2.9047    0.6313    2.1424 C.3       1 <0>         0.0147
     26 C19         2.8028    0.6672   -0.2639 C.3       1 <0>         0.0147
     27 C20         4.4144    0.8720    2.1079 C.3       1 <0>         0.0263
     28 C21         4.3154    0.8891   -0.3576 C.3       1 <0>         0.0263
     29 C22         6.2371   -0.1809    0.8016 C.2       1 <0>         0.1382
     30 C23         6.4741   -1.3433   -0.0100 C.ar      1 <0>         0.0306
     31 C24         7.8114   -1.7302    0.1000 C.ar      1 <0>         0.0412
     32 C25         5.6216   -2.1011   -0.8428 C.ar      1 <0>        -0.0502
     33 C26         8.3292   -2.8396   -0.5867 C.ar      1 <0>        -0.0459
     34 C27         6.1272   -3.2087   -1.5314 C.ar      1 <0>        -0.0610
     35 C28         7.4637   -3.5712   -1.4032 C.ar      1 <0>        -0.0606
     36 H1         -5.6063   -2.9632   -1.5286 H         1 <0>         0.0308
     37 H2         -5.6748   -1.4717    2.4599 H         1 <0>         0.0308
     38 H3         -5.9626   -0.2548   -1.5406 H         1 <0>         0.0404
     39 H4         -6.0003    0.5763    0.6816 H         1 <0>         0.0404
     40 H5         -4.1924   -2.7432    0.6871 H         1 <0>         0.0271
     41 H6         -5.6740   -3.6779    1.0113 H         1 <0>         0.0271
     42 H7         -7.8091   -3.2426   -0.4113 H         1 <0>         0.0268
     43 H8         -7.9186   -1.5977   -1.0669 H         1 <0>         0.0268
     44 H9         -7.9563   -0.7694    1.1455 H         1 <0>         0.0268
     45 H10        -7.8463   -2.4394    1.7345 H         1 <0>         0.0268
     46 H11        -1.3523   -0.4120   -1.2332 H         1 <0>         0.0472
     47 H12        -1.3386   -0.5664    0.5303 H         1 <0>         0.0472
     48 H13        -1.8229    1.8757    0.7698 H         1 <0>         0.0319
     49 H14         0.4768    1.3489   -1.1016 H         1 <0>         0.0316
     50 H15        -3.1623    2.1580   -1.2923 H         1 <0>         0.0269
     51 H16        -1.7368    1.8707   -2.2858 H         1 <0>         0.0269
     52 H17         1.4961    3.4413   -0.1547 H         1 <0>         0.0268
     53 H18         0.0770    3.6664    0.8633 H         1 <0>         0.0268
     54 H19        -2.1995    4.2691   -2.1205 H         1 <0>         0.0265
     55 H20        -2.2139    4.1950   -0.3600 H         1 <0>         0.0265
     56 H21         0.5892   -0.0248    1.0394 H         1 <0>         0.0429
     57 H22         0.4145    1.4607    1.9699 H         1 <0>         0.0429
     58 H23        -0.0592    5.0823   -1.1275 H         1 <0>         0.0265
     59 H24         0.1856    3.6977   -2.1894 H         1 <0>         0.0265
     60 H25         2.5072    1.0730    3.0641 H         1 <0>         0.0442
     61 H26         2.7045   -0.4480    2.1812 H         1 <0>         0.0442
     62 H27         2.5812   -0.4063   -0.3289 H         1 <0>         0.0442
     63 H28         2.4009    1.1452   -1.1601 H         1 <0>         0.0442
     64 H29         4.6362    1.9415    2.2124 H         1 <0>         0.0477
     65 H30         4.8681    0.3578    2.9643 H         1 <0>         0.0477
     66 H31         4.6968    0.4332   -1.2769 H         1 <0>         0.0477
     67 H32         4.5267    1.9637   -0.4416 H         1 <0>         0.0477
     68 H33         4.5683   -1.8599   -0.9489 H         1 <0>         0.0625
     69 H34         9.3715   -3.1268   -0.4898 H         1 <0>         0.0629
     70 H35         5.4675   -3.7927   -2.1673 H         1 <0>         0.0618
     71 H36         7.8408   -4.4353   -1.9438 H         1 <0>         0.0618
@<TRIPOS>BOND
     1    1    7 1
     2    1   31 1
     3    2   15 2
     4    3   16 2
     5    4   15 am
     6    4   16 am
     7    4   17 1
     8    5   23 1
     9    5   25 1
    10    5   26 1
    11    6   27 1
    12    6   28 1
    13    6   29 1
    14    7   29 2
    15    8   10 1
    16    8   12 1
    17    8   13 1
    18    8   36 1
    19    9   11 1
    20    9   12 1
    21    9   14 1
    22    9   37 1
    23   10   11 1
    24   10   15 1
    25   10   38 1
    26   11   16 1
    27   11   39 1
    28   12   40 1
    29   12   41 1
    30   13   14 1
    31   13   42 1
    32   13   43 1
    33   14   44 1
    34   14   45 1
    35   17   18 1
    36   17   46 1
    37   17   47 1
    38   18   19 1
    39   18   20 1
    40   18   48 1
    41   19   21 1
    42   19   23 1
    43   19   49 1
    44   20   22 1
    45   20   50 1
    46   20   51 1
    47   21   24 1
    48   21   52 1
    49   21   53 1
    50   22   24 1
    51   22   54 1
    52   22   55 1
    53   23   56 1
    54   23   57 1
    55   24   58 1
    56   24   59 1
    57   25   27 1
    58   25   60 1
    59   25   61 1
    60   26   28 1
    61   26   62 1
    62   26   63 1
    63   27   64 1
    64   27   65 1
    65   28   66 1
    66   28   67 1
    67   29   30 1
    68   30   31 ar
    69   30   32 ar
    70   31   33 ar
    71   32   34 ar
    72   32   68 1
    73   33   35 ar
    74   33   69 1
    75   34   35 ar
    76   34   70 1
    77   35   71 1
