@<TRIPOS>MOLECULE
DB08966
   52    53     0     0     0
SMALL
USER_CHARGES

@<TRIPOS>ATOM
      1 S1          0.5537   -2.4148    1.8116 S.3       1 <0>        -0.0858
      2 S2         -1.0949   -3.1623    0.8494 S.3       1 <0>        -0.0597
      3 O1          2.5545   -0.2903    0.8494 O.3       1 <0>        -0.3757
      4 O2         -2.8661   -2.7126   -2.3994 O.3       1 <0>        -0.3947
      5 O3         -4.3672    1.1425   -1.5036 O.2       1 <0>        -0.2790
      6 N1         -3.0994    0.2540    0.2579 N.am      1 <0>        -0.2727
      7 N2          0.7431    2.6282    0.4676 N.ar      1 <0>        -0.2177
      8 N3         -0.6403    3.7380   -1.1639 N.ar      1 <0>        -0.2401
      9 N4         -0.2199    1.1184    2.0222 N.pl3     1 <0>        -0.3428
     10 C1          2.9993   -1.6573    0.8392 C.3       1 <0>         0.0685
     11 C2          4.1100   -1.7330   -0.1939 C.3       1 <0>        -0.0237
     12 C3          4.7454   -0.3729   -0.0524 C.3       1 <0>        -0.0271
     13 C4          3.5401    0.5126    0.1827 C.3       1 <0>         0.0481
     14 C5          1.8309   -2.5765    0.5403 C.3       1 <0>         0.0305
     15 C6         -1.6929   -1.6666    0.1372 C.2       1 <0>         0.0154
     16 C7         -2.5713   -0.8868    0.8119 C.2       1 <0>         0.0207
     17 C8         -1.1981   -1.3546   -1.2659 C.3       1 <0>         0.0038
     18 C9         -2.8555    1.5209    0.9321 C.3       1 <0>         0.0490
     19 C10        -1.6262    2.2072    0.4106 C.ar      1 <0>         0.0278
     20 C11        -3.0819   -1.1647    2.1999 C.3       1 <0>        -0.0254
     21 C12        -1.4705   -2.4837   -2.2584 C.3       1 <0>         0.0487
     22 C13        -0.3640    2.0135    0.9336 C.ar      1 <0>         0.1244
     23 C14        -3.8450    0.2037   -0.9118 C.2       1 <0>         0.2068
     24 C15        -1.7049    3.0893   -0.6477 C.ar      1 <0>         0.0376
     25 C16         0.5356    3.4647   -0.5672 C.ar      1 <0>         0.1280
     26 C17         1.7361    4.1629   -1.1102 C.3       1 <0>        -0.0046
     27 H1          3.4148   -1.8702    1.8332 H         1 <0>         0.0604
     28 H2          4.8043   -2.5582   -0.0126 H         1 <0>         0.0291
     29 H3          3.7012   -1.8438   -1.2056 H         1 <0>         0.0291
     30 H4          5.3349   -0.0692   -0.9213 H         1 <0>         0.0288
     31 H5          5.3986   -0.3572    0.8282 H         1 <0>         0.0288
     32 H6          3.1069    0.8509   -0.7645 H         1 <0>         0.0560
     33 H7          3.7748    1.3898    0.7920 H         1 <0>         0.0560
     34 H8          2.1690   -3.6176    0.5139 H         1 <0>         0.0410
     35 H9          1.4206   -2.3299   -0.4400 H         1 <0>         0.0410
     36 H10        -1.6224   -0.4333   -1.6709 H         1 <0>         0.0341
     37 H11        -0.1225   -1.1569   -1.2334 H         1 <0>         0.0341
     38 H12        -2.8379    1.4086    2.0205 H         1 <0>         0.0519
     39 H13        -3.7196    2.1733    0.7449 H         1 <0>         0.0519
     40 H14        -3.2279   -2.2329    2.3873 H         1 <0>         0.0290
     41 H15        -4.0651   -0.7065    2.3622 H         1 <0>         0.0290
     42 H16        -2.3961   -0.7711    2.9564 H         1 <0>         0.0290
     43 H17        -0.9822   -3.4218   -1.9784 H         1 <0>         0.0560
     44 H18        -1.0804   -2.1959   -3.2409 H         1 <0>         0.0560
     45 H19        -3.9999   -0.8244   -1.2705 H         1 <0>         0.1257
     46 H20        -2.6489    3.3181   -1.1314 H         1 <0>         0.0834
     47 H21        -2.9747   -3.4190   -3.0587 H         1 <0>         0.2094
     48 H22         0.7275    0.9803    2.3549 H         1 <0>         0.1437
     49 H23        -0.9512    1.0790    2.7195 H         1 <0>         0.1437
     50 H24         1.5757    5.2453   -1.1065 H         1 <0>         0.0308
     51 H25         2.6268    3.9461   -0.5120 H         1 <0>         0.0308
     52 H26         1.9234    3.8369   -2.1377 H         1 <0>         0.0308
@<TRIPOS>BOND
     1    1    2 1
     2    1   14 1
     3    2   15 1
     4    3   10 1
     5    3   13 1
     6    4   21 1
     7    4   47 1
     8    5   23 2
     9    6   16 1
    10    6   18 1
    11    6   23 am
    12    7   22 ar
    13    7   25 ar
    14    8   24 ar
    15    8   25 ar
    16    9   22 1
    17    9   48 1
    18    9   49 1
    19   10   11 1
    20   10   14 1
    21   10   27 1
    22   11   12 1
    23   11   28 1
    24   11   29 1
    25   12   13 1
    26   12   30 1
    27   12   31 1
    28   13   32 1
    29   13   33 1
    30   14   34 1
    31   14   35 1
    32   15   16 2
    33   15   17 1
    34   16   20 1
    35   17   21 1
    36   17   36 1
    37   17   37 1
    38   18   19 1
    39   18   38 1
    40   18   39 1
    41   19   22 ar
    42   19   24 ar
    43   20   40 1
    44   20   41 1
    45   20   42 1
    46   21   43 1
    47   21   44 1
    48   23   45 1
    49   24   46 1
    50   25   26 1
    51   26   50 1
    52   26   51 1
    53   26   52 1
