@<TRIPOS>MOLECULE
DB08943
   39    41     0     0     0
SMALL
USER_CHARGES

@<TRIPOS>ATOM
      1 Cl1        -2.5649    0.0496   -2.8212 Cl        1 <0>        -0.0831
      2 Cl2        -5.1651    3.5292    0.3570 Cl        1 <0>        -0.0835
      3 Cl3         2.9741   -0.5051   -2.2020 Cl        1 <0>        -0.0831
      4 Cl4         0.6479    3.0697    1.1954 Cl        1 <0>        -0.0831
      5 O1          0.2356   -0.2611    0.0407 O.3       1 <0>        -0.3655
      6 N1         -0.3253   -3.0826    0.4751 N.pl3     1 <0>        -0.3340
      7 N2          0.6096   -4.9186   -0.3142 N.2       1 <0>        -0.2441
      8 C1         -1.0546   -0.8027   -0.2730 C.3       1 <0>         0.1032
      9 C2         -1.3018   -2.0141    0.6490 C.3       1 <0>         0.0546
     10 C3         -2.0842    0.2736   -0.1483 C.ar      1 <0>         0.0012
     11 C4          0.5716    0.7962   -0.8402 C.3       1 <0>         0.0763
     12 C5         -2.8138    0.7200   -1.2502 C.ar      1 <0>         0.0480
     13 C6         -2.3075    0.8338    1.1095 C.ar      1 <0>        -0.0533
     14 C7          1.9257    1.3281   -0.4727 C.ar      1 <0>         0.0147
     15 C8          0.8443   -3.2067    1.1528 C.cat     1 <0>         0.0241
     16 C9         -0.4332   -4.1220   -0.3924 C.cat     1 <0>         0.0960
     17 C10        -3.7666    1.7268   -1.0943 C.ar      1 <0>        -0.0247
     18 C11        -3.2602    1.8404    1.2654 C.ar      1 <0>        -0.0430
     19 C12        -3.9898    2.2871    0.1635 C.ar      1 <0>         0.0424
     20 C13         1.4095   -4.3540    0.6476 C.2       1 <0>         0.0454
     21 C14         3.0686    0.7832   -1.0557 C.ar      1 <0>         0.0477
     22 C15         2.0382    2.3664    0.4507 C.ar      1 <0>         0.0477
     23 C16         4.3274    1.2779   -0.7144 C.ar      1 <0>        -0.0430
     24 C17         3.2971    2.8608    0.7919 C.ar      1 <0>        -0.0430
     25 C18         4.4417    2.3167    0.2092 C.ar      1 <0>        -0.0590
     26 H1         -0.9811   -1.2076   -1.2867 H         1 <0>         0.0665
     27 H2         -1.2496   -1.7335    1.7079 H         1 <0>         0.0521
     28 H3         -2.2931   -2.4473    0.4689 H         1 <0>         0.0521
     29 H4         -0.1516    1.6162   -0.8240 H         1 <0>         0.0611
     30 H5          0.5518    0.4423   -1.8775 H         1 <0>         0.0611
     31 H6         -1.7429    0.5119    1.9801 H         1 <0>         0.0622
     32 H7          1.1709   -2.5031    1.9057 H         1 <0>         0.0825
     33 H8         -1.2785   -4.2536   -1.0540 H         1 <0>         0.1029
     34 H9         -4.3366    2.0765   -1.9527 H         1 <0>         0.0647
     35 H10        -3.4210    2.2701    2.2508 H         1 <0>         0.0632
     36 H11         2.3523   -4.8013    0.9268 H         1 <0>         0.0845
     37 H12         5.2294    0.8647   -1.1588 H         1 <0>         0.0632
     38 H13         3.4037    3.6701    1.5099 H         1 <0>         0.0632
     39 H14         5.4219    2.7018    0.4748 H         1 <0>         0.0618
@<TRIPOS>BOND
     1    1   12 1
     2    2   19 1
     3    3   21 1
     4    4   22 1
     5    5    8 1
     6    5   11 1
     7    6    9 1
     8    6   15 1
     9    6   16 2
    10    7   16 1
    11    7   20 2
    12    8    9 1
    13    8   10 1
    14    8   26 1
    15    9   27 1
    16    9   28 1
    17   10   12 ar
    18   10   13 ar
    19   11   14 1
    20   11   29 1
    21   11   30 1
    22   12   17 ar
    23   13   18 ar
    24   13   31 1
    25   14   21 ar
    26   14   22 ar
    27   15   20 1
    28   15   32 1
    29   16   33 1
    30   17   19 ar
    31   17   34 1
    32   18   19 ar
    33   18   35 1
    34   20   36 1
    35   21   23 ar
    36   22   24 ar
    37   23   25 ar
    38   23   37 1
    39   24   25 ar
    40   24   38 1
    41   25   39 1
