@<TRIPOS>MOLECULE
DB08809
    8     7     0     0     0
SMALL
USER_CHARGES

@<TRIPOS>ATOM
      1 Cl1         1.9583    1.1749    0.5027 Cl        1 <0>        -0.0924
      2 Cl2         1.4318   -1.0441   -1.3051 Cl        1 <0>        -0.0924
      3 O1         -1.4599   -0.5771    0.2749 O.3       1 <0>        -0.4788
      4 O2         -0.8107    1.4087   -0.6031 O.2       1 <0>        -0.2480
      5 C1          0.8778   -0.1814    0.1368 C.3       1 <0>         0.2034
      6 C2         -0.5185    0.3249   -0.1156 C.2       1 <0>         0.3378
      7 H1          0.8910   -0.8585    0.9954 H         1 <0>         0.0752
      8 H2         -2.3698   -0.2475    0.1141 H         1 <0>         0.2951
@<TRIPOS>BOND
     1    1    5 1
     2    2    5 1
     3    3    6 1
     4    3    8 1
     5    4    6 2
     6    5    6 1
     7    5    7 1
