@<TRIPOS>MOLECULE
DB08896
   48    50     0     0     0
SMALL
USER_CHARGES

@<TRIPOS>ATOM
      1 Cl1         9.3500    0.5148   -1.6016 Cl        1 <0>        -0.0830
      2 F1         -0.4478   -0.2479    2.4948 F         1 <0>        -0.2034
      3 F2          7.8492    2.1416    2.2523 F         1 <0>        -0.1658
      4 F3          9.4558    0.9242    1.4517 F         1 <0>        -0.1658
      5 F4          8.8811    2.7621    0.4415 F         1 <0>        -0.1658
      6 O1         -3.4648   -2.6635   -0.2662 O.3       1 <0>        -0.4558
      7 O2          2.7822   -1.2889   -1.2429 O.2       1 <0>        -0.2522
      8 O3         -4.7137    2.1321   -1.2527 O.2       1 <0>        -0.2685
      9 N1          3.8351   -0.0536    0.4469 N.am      1 <0>        -0.2692
     10 N2          1.6052   -0.6168    0.6631 N.am      1 <0>        -0.2667
     11 N3         -6.7180   -0.1865    0.4764 N.ar      1 <0>        -0.2501
     12 N4         -6.8174    2.3705   -0.3070 N.am      1 <0>        -0.3132
     13 C1          5.1388    0.0866   -0.0291 C.ar      1 <0>         0.0354
     14 C2          7.3895    0.9206    0.2471 C.ar      1 <0>         0.0748
     15 C3          0.3113   -1.1387    0.4281 C.ar      1 <0>         0.0704
     16 C4          6.0858    0.7815    0.7234 C.ar      1 <0>        -0.0274
     17 C5         -2.2209   -2.1609   -0.0376 C.ar      1 <0>         0.1313
     18 C6          5.4956   -0.4692   -1.2576 C.ar      1 <0>        -0.0390
     19 C7          7.7462    0.3647   -0.9814 C.ar      1 <0>         0.0527
     20 C8         -0.6862   -0.9325    1.3670 C.ar      1 <0>         0.1480
     21 C9          0.0694   -1.8449   -0.7388 C.ar      1 <0>        -0.0342
     22 C10        -1.9612   -1.4473    1.1325 C.ar      1 <0>         0.0177
     23 C11        -1.2055   -2.3597   -0.9731 C.ar      1 <0>        -0.0174
     24 C12         6.7994   -0.3302   -1.7338 C.ar      1 <0>        -0.0411
     25 C13         2.7393   -0.7156   -0.1590 C.2       1 <0>         0.3082
     26 C14         8.3746    1.6711    1.0840 C.3       1 <0>         0.4188
     27 C15        -4.5483   -1.8376   -0.0181 C.ar      1 <0>         0.1321
     28 C16        -4.5150   -0.5317   -0.4581 C.ar      1 <0>         0.0112
     29 C17        -5.6242    0.2529   -0.1859 C.ar      1 <0>         0.1288
     30 C18        -5.6364   -2.3406    0.6623 C.ar      1 <0>        -0.0012
     31 C19        -6.6953   -1.4751    0.8845 C.ar      1 <0>         0.0319
     32 C20        -5.6640    1.6394   -0.6176 C.2       1 <0>         0.2623
     33 C21        -7.0167    3.7505   -0.6875 C.3       1 <0>         0.0004
     34 H1          5.7980    1.2107    1.6802 H         1 <0>         0.0642
     35 H2          4.8228   -1.0206   -1.8987 H         1 <0>         0.0636
     36 H3          3.6502    0.3778    1.3492 H         1 <0>         0.1564
     37 H4          0.7969   -2.0428   -1.5111 H         1 <0>         0.0638
     38 H5          1.7163   -0.1092    1.5372 H         1 <0>         0.1565
     39 H6         -2.7261   -1.2960    1.8894 H         1 <0>         0.0684
     40 H7         -1.4037   -2.9148   -1.8862 H         1 <0>         0.0655
     41 H8          7.0629   -0.7691   -2.6929 H         1 <0>         0.0633
     42 H9         -3.6720   -0.1367   -1.0145 H         1 <0>         0.0677
     43 H10        -5.6703   -3.3659    1.0117 H         1 <0>         0.0669
     44 H11        -7.5823   -1.8071    1.4140 H         1 <0>         0.0831
     45 H12        -7.5519    1.9194    0.2309 H         1 <0>         0.1487
     46 H13        -6.4321    3.9946   -1.5777 H         1 <0>         0.0426
     47 H14        -8.0802    3.9046   -0.8841 H         1 <0>         0.0426
     48 H15        -6.7015    4.3840    0.1451 H         1 <0>         0.0426
@<TRIPOS>BOND
     1    1   19 1
     2    2   20 1
     3    3   26 1
     4    4   26 1
     5    5   26 1
     6    6   17 1
     7    6   27 1
     8    7   25 2
     9    8   32 2
    10    9   13 1
    11    9   25 am
    12    9   36 1
    13   10   15 1
    14   10   25 am
    15   10   38 1
    16   11   29 ar
    17   11   31 ar
    18   12   32 am
    19   12   33 1
    20   12   45 1
    21   13   16 ar
    22   13   18 ar
    23   14   16 ar
    24   14   19 ar
    25   14   26 1
    26   15   20 ar
    27   15   21 ar
    28   16   34 1
    29   17   22 ar
    30   17   23 ar
    31   18   24 ar
    32   18   35 1
    33   19   24 ar
    34   20   22 ar
    35   21   23 ar
    36   21   37 1
    37   22   39 1
    38   23   40 1
    39   24   41 1
    40   27   28 ar
    41   27   30 ar
    42   28   29 ar
    43   28   42 1
    44   29   32 1
    45   30   31 ar
    46   30   43 1
    47   31   44 1
    48   33   46 1
    49   33   47 1
    50   33   48 1
