@<TRIPOS>MOLECULE
DB08987
   48    48     0     0     0
SMALL
USER_CHARGES

@<TRIPOS>ATOM
      1 O1          0.7022    0.3699   -2.1188 O.2       1 <0>        -0.2737
      2 N1         -1.4896   -0.4344    0.2497 N.3       1 <0>        -0.2918
      3 N2          1.2526    0.2082    0.1569 N.am      1 <0>        -0.2837
      4 C1         -1.0157    0.7483   -0.4705 C.3       1 <0>         0.0873
      5 C2         -2.8286   -0.2013    0.7882 C.3       1 <0>        -0.0007
      6 C3         -1.0580    1.9648    0.4630 C.3       1 <0>        -0.0317
      7 C4         -1.4877   -1.6020   -0.6302 C.3       1 <0>        -0.0032
      8 C5          0.4042    0.4118   -0.9282 C.2       1 <0>         0.2344
      9 C6         -3.8204    0.0445   -0.3459 C.3       1 <0>        -0.0430
     10 C7         -0.5078    3.2204   -0.2026 C.3       1 <0>        -0.0634
     11 C8         -1.9175   -2.8534    0.1074 C.3       1 <0>        -0.0523
     12 C9          2.6293   -0.1188    0.1262 C.ar      1 <0>         0.0393
     13 C10        -5.2188    0.3114    0.1895 C.3       1 <0>        -0.0641
     14 C11         3.0128   -1.4514    0.1092 C.ar      1 <0>        -0.0290
     15 C12         3.5712    0.8991    0.1144 C.ar      1 <0>        -0.0290
     16 C13         4.3697   -1.7738    0.0797 C.ar      1 <0>        -0.0571
     17 C14         4.9279    0.5769    0.0846 C.ar      1 <0>        -0.0571
     18 C15         2.0110   -2.5603    0.1217 C.3       1 <0>        -0.0379
     19 C16         3.1750    2.3401    0.1321 C.3       1 <0>        -0.0379
     20 C17         5.3272   -0.7597    0.0673 C.ar      1 <0>        -0.0611
     21 H1         -1.5814    0.9581   -1.3861 H         1 <0>         0.0558
     22 H2         -3.1581   -1.0607    1.3846 H         1 <0>         0.0427
     23 H3         -2.8545    0.6030    1.5298 H         1 <0>         0.0427
     24 H4         -0.5063    1.7892    1.3943 H         1 <0>         0.0282
     25 H5         -2.0832    2.2302    0.7387 H         1 <0>         0.0282
     26 H6         -2.0700   -1.4754   -1.5495 H         1 <0>         0.0424
     27 H7         -0.4746   -1.8166   -0.9783 H         1 <0>         0.0424
     28 H8         -3.5592    0.9146   -0.9541 H         1 <0>         0.0275
     29 H9         -3.9136   -0.8149   -1.0156 H         1 <0>         0.0275
     30 H10        -1.0964    3.4770   -1.0898 H         1 <0>         0.0230
     31 H11        -0.5592    4.0668    0.4900 H         1 <0>         0.0230
     32 H12         0.5312    3.1045   -0.5110 H         1 <0>         0.0230
     33 H13        -1.4023   -2.9572    1.0687 H         1 <0>         0.0242
     34 H14        -2.9976   -2.8923    0.2779 H         1 <0>         0.0242
     35 H15        -1.6653   -3.7370   -0.4903 H         1 <0>         0.0242
     36 H16         0.8050    0.0164    1.0507 H         1 <0>         0.1549
     37 H17        -5.5854   -0.5401    0.7718 H         1 <0>         0.0230
     38 H18        -5.2302    1.1979    0.8320 H         1 <0>         0.0230
     39 H19        -5.9171    0.4828   -0.6362 H         1 <0>         0.0230
     40 H20         4.6974   -2.8099    0.0636 H         1 <0>         0.0621
     41 H21         5.6872    1.3545    0.0729 H         1 <0>         0.0621
     42 H22         1.5932   -2.6990   -0.8794 H         1 <0>         0.0278
     43 H23         2.4713   -3.5081    0.4232 H         1 <0>         0.0278
     44 H24         1.2085   -2.3676    0.8400 H         1 <0>         0.0278
     45 H25         2.4355    2.5338    0.9156 H         1 <0>         0.0278
     46 H26         4.0314    2.9906    0.3423 H         1 <0>         0.0278
     47 H27         2.7711    2.6298   -0.8427 H         1 <0>         0.0278
     48 H28         6.3837   -1.0106    0.0433 H         1 <0>         0.0618
@<TRIPOS>BOND
     1    1    8 2
     2    2    4 1
     3    2    5 1
     4    2    7 1
     5    3    8 am
     6    3   12 1
     7    3   36 1
     8    4    6 1
     9    4    8 1
    10    4   21 1
    11    5    9 1
    12    5   22 1
    13    5   23 1
    14    6   10 1
    15    6   24 1
    16    6   25 1
    17    7   11 1
    18    7   26 1
    19    7   27 1
    20    9   13 1
    21    9   28 1
    22    9   29 1
    23   10   30 1
    24   10   31 1
    25   10   32 1
    26   11   33 1
    27   11   34 1
    28   11   35 1
    29   12   14 ar
    30   12   15 ar
    31   13   37 1
    32   13   38 1
    33   13   39 1
    34   14   16 ar
    35   14   18 1
    36   15   17 ar
    37   15   19 1
    38   16   20 ar
    39   16   40 1
    40   17   20 ar
    41   17   41 1
    42   18   42 1
    43   18   43 1
    44   18   44 1
    45   19   45 1
    46   19   46 1
    47   19   47 1
    48   20   48 1
