@<TRIPOS>MOLECULE
DB08882
   63    67     0     0     0
SMALL
USER_CHARGES

@<TRIPOS>ATOM
      1 O1         -0.8440    0.0238   -2.3426 O.2       1 <0>        -0.2652
      2 O2         -2.4882    3.8080   -0.1093 O.2       1 <0>        -0.2462
      3 N1          3.8188    0.6925    0.2078 N.pl3     1 <0>        -0.2994
      4 N2          1.7006    0.5181   -0.8482 N.pl3     1 <0>        -0.2946
      5 N3          5.5702   -2.3687    1.4585 N.3       1 <0>        -0.3259
      6 N4          1.9608    2.2077    0.5828 N.2       1 <0>        -0.1959
      7 N5         -0.3014    3.1421    0.3249 N.am      1 <0>        -0.2795
      8 N6         -1.6892    1.9161   -1.2361 N.am      1 <0>        -0.2516
      9 N7         -3.8853   -0.4055   -1.4063 N.ar      1 <0>        -0.2302
     10 N8         -4.7072    1.5405   -0.2470 N.ar      1 <0>        -0.2347
     11 C1          5.2278   -1.3002    0.5221 C.3       1 <0>         0.0208
     12 C2          4.0907   -0.4438    1.0973 C.3       1 <0>         0.0300
     13 C3          6.4675   -0.4513    0.2251 C.3       1 <0>        -0.0349
     14 C4          6.1035    0.7129   -0.6931 C.3       1 <0>        -0.0357
     15 C5          4.9718    1.5475   -0.1003 C.3       1 <0>         0.0149
     16 C6          2.5391    1.1658    0.0220 C.2       1 <0>         0.2016
     17 C7          0.5148    1.1950   -0.8366 C.2       1 <0>         0.1537
     18 C8          0.7013    2.2236    0.0464 C.cat     1 <0>         0.1698
     19 C9          2.0103   -0.6574   -1.6311 C.3       1 <0>         0.0878
     20 C10        -0.6950    0.9528   -1.5535 C.2       1 <0>         0.2829
     21 C11        -1.5587    3.0200   -0.3180 C.2       1 <0>         0.3337
     22 C12        -2.9761    1.7739   -1.9091 C.3       1 <0>         0.0906
     23 C13        -0.0548    4.2206    1.2740 C.3       1 <0>         0.0181
     24 C14         1.6858   -1.8938   -0.9142 C.1       1 <0>        -0.0806
     25 C15        -3.9249    0.9093   -1.1305 C.ar      1 <0>         0.1497
     26 C16        -4.7324   -1.1860   -0.7128 C.ar      1 <0>         0.0748
     27 C17        -5.5427    0.7301    0.4296 C.ar      1 <0>         0.0495
     28 C18        -5.6072   -0.6481    0.2452 C.ar      1 <0>         0.0214
     29 C19         1.4201   -2.9073   -0.3276 C.1       1 <0>        -0.1038
     30 C20        -4.7680   -2.5620   -0.9254 C.ar      1 <0>        -0.0356
     31 C21        -6.4886   -1.4738    0.9643 C.ar      1 <0>        -0.0509
     32 C22        -6.4213    1.4270    1.4189 C.3       1 <0>        -0.0216
     33 C23         1.0963   -4.1399    0.3890 C.3       1 <0>        -0.0025
     34 C24        -5.6415   -3.3899   -0.2142 C.ar      1 <0>        -0.0597
     35 C25        -6.5030   -2.8455    0.7318 C.ar      1 <0>        -0.0610
     36 H1          4.8863   -1.7624   -0.4121 H         1 <0>         0.0474
     37 H2          3.1949   -1.0551    1.2507 H         1 <0>         0.0480
     38 H3          4.3673   -0.0513    2.0853 H         1 <0>         0.0480
     39 H4          7.2441   -1.0615   -0.2516 H         1 <0>         0.0281
     40 H5          6.8952   -0.0570    1.1563 H         1 <0>         0.0281
     41 H6          5.3062    2.0521    0.8142 H         1 <0>         0.0464
     42 H7          4.6931    2.3273   -0.8199 H         1 <0>         0.0464
     43 H8          6.9830    1.3448   -0.8587 H         1 <0>         0.0281
     44 H9          5.7974    0.3210   -1.6712 H         1 <0>         0.0281
     45 H10         5.8988   -1.9680    2.3365 H         1 <0>         0.1185
     46 H11         6.3489   -2.9126    1.0886 H         1 <0>         0.1185
     47 H12         1.4776   -0.5961   -2.5839 H         1 <0>         0.0629
     48 H13         3.0746   -0.6280   -1.8883 H         1 <0>         0.0629
     49 H14        -2.8263    1.3411   -2.9056 H         1 <0>         0.0575
     50 H15        -3.4266    2.7611   -2.0661 H         1 <0>         0.0575
     51 H16        -0.9323    4.8615    1.3901 H         1 <0>         0.0458
     52 H17         0.7807    4.8281    0.9129 H         1 <0>         0.0458
     53 H18         0.1971    3.7873    2.2468 H         1 <0>         0.0458
     54 H19        -4.1035   -3.0129   -1.6601 H         1 <0>         0.0639
     55 H20        -7.1718   -1.0747    1.7087 H         1 <0>         0.0625
     56 H21        -6.2268    2.5054    1.4223 H         1 <0>         0.0293
     57 H22        -7.4773    1.2869    1.1662 H         1 <0>         0.0293
     58 H23        -6.2325    1.0587    2.4324 H         1 <0>         0.0293
     59 H24         1.2055   -5.0104   -0.2646 H         1 <0>         0.0362
     60 H25         1.7596   -4.2753    1.2487 H         1 <0>         0.0362
     61 H26         0.0656   -4.1176    0.7555 H         1 <0>         0.0362
     62 H27        -5.6463   -4.4597   -0.4019 H         1 <0>         0.0618
     63 H28        -7.1822   -3.4868    1.2851 H         1 <0>         0.0618
@<TRIPOS>BOND
     1    1   20 2
     2    2   21 2
     3    3   12 1
     4    3   15 1
     5    3   16 1
     6    4   16 1
     7    4   17 2
     8    4   19 1
     9    5   11 1
    10    5   45 1
    11    5   46 1
    12    6   16 2
    13    6   18 1
    14    7   18 2
    15    7   21 am
    16    7   23 1
    17    8   20 am
    18    8   21 am
    19    8   22 1
    20    9   25 ar
    21    9   26 ar
    22   10   25 ar
    23   10   27 ar
    24   11   12 1
    25   11   13 1
    26   11   36 1
    27   12   37 1
    28   12   38 1
    29   13   14 1
    30   13   39 1
    31   13   40 1
    32   14   15 1
    33   14   43 1
    34   14   44 1
    35   15   41 1
    36   15   42 1
    37   17   18 1
    38   17   20 1
    39   19   24 1
    40   19   47 1
    41   19   48 1
    42   22   25 1
    43   22   49 1
    44   22   50 1
    45   23   51 1
    46   23   52 1
    47   23   53 1
    48   24   29 3
    49   26   28 ar
    50   26   30 ar
    51   27   28 ar
    52   27   32 1
    53   28   31 ar
    54   29   33 1
    55   30   34 ar
    56   30   54 1
    57   31   35 ar
    58   31   55 1
    59   32   56 1
    60   32   57 1
    61   32   58 1
    62   33   59 1
    63   33   60 1
    64   33   61 1
    65   34   35 ar
    66   34   62 1
    67   35   63 1
