@<TRIPOS>MOLECULE
DB08932
   52    54     0     0     0
SMALL
USER_CHARGES

@<TRIPOS>ATOM
      1 Br1        -0.0715   -4.6511    1.8928 Br        1 <0>        -0.0503
      2 Br2         9.0483   -2.6010   -0.3592 Br        1 <0>        -0.0472
      3 S1         -4.4756    1.8277    1.0472 S.o2      1 <0>         0.1104
      4 O1          1.5367    1.4270   -0.2975 O.3       1 <0>        -0.4724
      5 O2         -5.4480    1.2929    1.9835 O.2       1 <0>        -0.1381
      6 O3         -4.5137    3.2349    0.6951 O.2       1 <0>        -0.1381
      7 O4          4.2662    0.8880    0.0072 O.3       1 <0>        -0.4590
      8 N1         -4.5665    0.9126   -0.4107 N.pl3     1 <0>        -0.1771
      9 N2         -2.9047    1.4098    1.6259 N.pl3     1 <0>        -0.1889
     10 N3         -1.9321    3.3559    0.7282 N.ar      1 <0>        -0.2186
     11 N4          0.2793    3.3592   -0.2292 N.ar      1 <0>        -0.2008
     12 N5          5.8511   -0.1528   -1.3133 N.ar      1 <0>        -0.2022
     13 N6          5.8588   -0.3931    1.0845 N.ar      1 <0>        -0.2022
     14 C1         -4.7785   -0.5464   -0.2938 C.3       1 <0>         0.0185
     15 C2         -0.6421    1.3248    0.6687 C.ar      1 <0>         0.0848
     16 C3         -1.7789    2.0401    0.9847 C.ar      1 <0>         0.1532
     17 C4         -4.8212   -1.1886   -1.6749 C.3       1 <0>        -0.0416
     18 C5         -0.5074   -0.0866    0.9578 C.ar      1 <0>        -0.0094
     19 C6          0.3648    2.0435    0.0567 C.ar      1 <0>         0.2276
     20 C7         -5.0539   -2.6919   -1.6180 C.3       1 <0>        -0.0641
     21 C8         -0.9105   -1.0332    0.0158 C.ar      1 <0>        -0.0527
     22 C9          0.0257   -0.5007    2.1785 C.ar      1 <0>        -0.0527
     23 C10         2.5225    2.2390   -0.9235 C.3       1 <0>         0.1252
     24 C11        -0.7808   -2.3937    0.2946 C.ar      1 <0>        -0.0472
     25 C12         0.1554   -1.8612    2.4573 C.ar      1 <0>        -0.0472
     26 C13        -0.8796    3.9444    0.1288 C.ar      1 <0>         0.1219
     27 C14         3.7468    1.3933   -1.2170 C.3       1 <0>         0.1267
     28 C15        -0.2478   -2.8077    1.5154 C.ar      1 <0>         0.0179
     29 C16         5.3697    0.0805   -0.0776 C.ar      1 <0>         0.3180
     30 C17         6.9390   -0.9495   -1.3595 C.ar      1 <0>         0.0483
     31 C18         6.9463   -1.1824    0.9647 C.ar      1 <0>         0.0483
     32 C19         7.5354   -1.4982   -0.2428 C.ar      1 <0>         0.0543
     33 H1         -5.7209   -0.7337    0.2312 H         1 <0>         0.0442
     34 H2         -3.9619   -0.9853    0.2879 H         1 <0>         0.0442
     35 H3         -3.8798   -0.9926   -2.2028 H         1 <0>         0.0275
     36 H4         -5.6156   -0.7251   -2.2724 H         1 <0>         0.0275
     37 H5         -3.9101    1.1912   -1.1517 H         1 <0>         0.1493
     38 H6         -2.7717    0.4438    1.9480 H         1 <0>         0.1763
     39 H7         -4.2538   -3.1893   -1.0605 H         1 <0>         0.0230
     40 H8         -6.0070   -2.9214   -1.1310 H         1 <0>         0.0230
     41 H9         -5.0772   -3.1112   -2.6286 H         1 <0>         0.0230
     42 H10        -1.3289   -0.7270   -0.9401 H         1 <0>         0.0624
     43 H11         0.3449    0.2243    2.9236 H         1 <0>         0.0624
     44 H12         2.8079    3.0537   -0.2462 H         1 <0>         0.0731
     45 H13         2.1355    2.6510   -1.8630 H         1 <0>         0.0731
     46 H14        -1.1012   -3.1180   -0.4499 H         1 <0>         0.0629
     47 H15         0.5728   -2.1673    3.4131 H         1 <0>         0.0629
     48 H16        -0.9759    5.0008   -0.0894 H         1 <0>         0.1049
     49 H17         3.4539    0.5552   -1.8617 H         1 <0>         0.0732
     50 H18         4.4989    2.0096   -1.7234 H         1 <0>         0.0732
     51 H19         7.3214   -1.1333   -2.3588 H         1 <0>         0.0843
     52 H20         7.3354   -1.5607    1.9050 H         1 <0>         0.0843
@<TRIPOS>BOND
     1    1   28 1
     2    2   32 1
     3    3    5 2
     4    3    6 2
     5    3    8 1
     6    3    9 1
     7    4   19 1
     8    4   23 1
     9    7   27 1
    10    7   29 1
    11    8   14 1
    12    8   37 1
    13    9   16 1
    14    9   38 1
    15   10   16 ar
    16   10   26 ar
    17   11   19 ar
    18   11   26 ar
    19   12   29 ar
    20   12   30 ar
    21   13   29 ar
    22   13   31 ar
    23   14   17 1
    24   14   33 1
    25   14   34 1
    26   15   16 ar
    27   15   18 1
    28   15   19 ar
    29   17   20 1
    30   17   35 1
    31   17   36 1
    32   18   21 ar
    33   18   22 ar
    34   20   39 1
    35   20   40 1
    36   20   41 1
    37   21   24 ar
    38   21   42 1
    39   22   25 ar
    40   22   43 1
    41   23   27 1
    42   23   44 1
    43   23   45 1
    44   24   28 ar
    45   24   46 1
    46   25   28 ar
    47   25   47 1
    48   26   48 1
    49   27   49 1
    50   27   50 1
    51   30   32 ar
    52   30   51 1
    53   31   32 ar
    54   31   52 1
