@<TRIPOS>MOLECULE
DB08941
   45    46     0     0     0
SMALL
USER_CHARGES

@<TRIPOS>ATOM
      1 O1         -3.7977    2.2445    0.8688 O.3       1 <0>        -0.3856
      2 O2          2.9198    0.1874   -0.9023 O.3       1 <0>        -0.4904
      3 O3         -5.0841   -3.4964   -1.1114 O.3       1 <0>        -0.5068
      4 N1         -0.5178    0.5752    0.3475 N.3       1 <0>        -0.3051
      5 C1         -1.5092    1.6557    0.2726 C.3       1 <0>         0.0353
      6 C2         -2.8073    1.2196    0.9886 C.3       1 <0>         0.0952
      7 C3          0.6820    0.9328   -0.3887 C.3       1 <0>         0.0393
      8 C4         -0.8890    2.9092    0.8926 C.3       1 <0>        -0.0470
      9 C5         -3.4179   -0.0459    0.4256 C.ar      1 <0>        -0.0175
     10 C6          1.7243   -0.1736   -0.2217 C.3       1 <0>         0.1046
     11 C7          0.3425    1.1760   -1.8595 C.3       1 <0>        -0.0465
     12 C8         -3.6396   -1.1217    1.2672 C.ar      1 <0>        -0.0526
     13 C9         -3.7415   -0.0982   -0.9188 C.ar      1 <0>        -0.0526
     14 C10        -4.2027   -2.2874    0.7479 C.ar      1 <0>        -0.0198
     15 C11        -4.3049   -1.2638   -1.4382 C.ar      1 <0>        -0.0198
     16 C12        -4.5354   -2.3584   -0.6048 C.ar      1 <0>         0.1169
     17 C13         4.0899   -0.3285   -0.4103 C.ar      1 <0>         0.1206
     18 C14         4.0836   -1.5644    0.2263 C.ar      1 <0>        -0.0199
     19 C15         5.2716    0.3902   -0.5517 C.ar      1 <0>        -0.0199
     20 C16         5.2749   -2.0885    0.7282 C.ar      1 <0>        -0.0583
     21 C17         6.4629   -0.1340   -0.0500 C.ar      1 <0>        -0.0583
     22 C18         6.4646   -1.3734    0.5899 C.ar      1 <0>        -0.0615
     23 H1         -1.7884    1.9007   -0.7567 H         1 <0>         0.0486
     24 H2         -2.6053    1.1012    2.0611 H         1 <0>         0.0659
     25 H3          1.1673    1.8340    0.0013 H         1 <0>         0.0491
     26 H4         -0.2877    0.3841    1.3225 H         1 <0>         0.1227
     27 H5         -1.6607    3.6652    1.0779 H         1 <0>         0.0246
     28 H6         -0.4150    2.7007    1.8588 H         1 <0>         0.0246
     29 H7         -0.1589    3.3933    0.2366 H         1 <0>         0.0246
     30 H8          1.9073   -0.3049    0.8541 H         1 <0>         0.0712
     31 H9          1.3480   -1.1161   -0.6394 H         1 <0>         0.0712
     32 H10        -0.1709    2.1283   -2.0235 H         1 <0>         0.0246
     33 H11        -0.2751    0.3690   -2.2709 H         1 <0>         0.0246
     34 H12         1.2514    1.2240   -2.4698 H         1 <0>         0.0246
     35 H13        -3.3845   -1.0780    2.3218 H         1 <0>         0.0622
     36 H14        -3.5806    0.7469   -1.5809 H         1 <0>         0.0622
     37 H15        -4.6225    1.9161    1.2664 H         1 <0>         0.2103
     38 H16        -4.3769   -3.1331    1.4076 H         1 <0>         0.0654
     39 H17        -4.5643   -1.3125   -2.4923 H         1 <0>         0.0654
     40 H18         3.1859   -2.1657    0.3302 H         1 <0>         0.0654
     41 H19         5.2745    1.3560   -1.0490 H         1 <0>         0.0654
     42 H20         5.2779   -3.0564    1.2210 H         1 <0>         0.0619
     43 H21         7.3893    0.4227   -0.1579 H         1 <0>         0.0619
     44 H22        -5.1721   -4.1494   -0.3959 H         1 <0>         0.2921
     45 H23         7.3924   -1.7824    0.9791 H         1 <0>         0.0618
@<TRIPOS>BOND
     1    1    6 1
     2    1   37 1
     3    2   10 1
     4    2   17 1
     5    3   16 1
     6    3   44 1
     7    4    5 1
     8    4    7 1
     9    4   26 1
    10    5    6 1
    11    5    8 1
    12    5   23 1
    13    6    9 1
    14    6   24 1
    15    7   10 1
    16    7   11 1
    17    7   25 1
    18    8   27 1
    19    8   28 1
    20    8   29 1
    21    9   12 ar
    22    9   13 ar
    23   10   30 1
    24   10   31 1
    25   11   32 1
    26   11   33 1
    27   11   34 1
    28   12   14 ar
    29   12   35 1
    30   13   15 ar
    31   13   36 1
    32   14   16 ar
    33   14   38 1
    34   15   16 ar
    35   15   39 1
    36   17   18 ar
    37   17   19 ar
    38   18   20 ar
    39   18   40 1
    40   19   21 ar
    41   19   41 1
    42   20   22 ar
    43   20   42 1
    44   21   22 ar
    45   21   43 1
    46   22   45 1
