@<TRIPOS>MOLECULE
DB08801
   46    48     0     0     0
SMALL
USER_CHARGES

@<TRIPOS>ATOM
      1 N1          4.0289   -0.8691   -0.0356 N.3       1 <0>        -0.3080
      2 N2         -3.2421   -1.8967    0.7127 N.ar      1 <0>        -0.2593
      3 C1         -0.6020    0.3874    0.6553 C.2       1 <0>        -0.0318
      4 C2          0.6724    0.7782    0.4502 C.2       1 <0>        -0.0597
      5 C3          0.7616    2.1230   -0.2444 C.3       1 <0>        -0.0053
      6 C4         -1.1406   -0.8418    1.2920 C.3       1 <0>         0.0241
      7 C5         -1.4762    1.4329    0.1182 C.ar      1 <0>        -0.0178
      8 C6         -0.6851    2.4596   -0.4138 C.ar      1 <0>        -0.0359
      9 C7          1.9318    0.0710    0.8133 C.3       1 <0>        -0.0180
     10 C8          2.7987   -0.1843   -0.4167 C.3       1 <0>         0.0020
     11 C9         -1.9191   -0.5214    2.5778 C.3       1 <0>        -0.0529
     12 C10        -2.8595    1.5174    0.0791 C.ar      1 <0>        -0.0540
     13 C11        -1.9798   -1.6700    0.3287 C.ar      1 <0>         0.0484
     14 C12        -1.2489    3.5843   -0.9916 C.ar      1 <0>        -0.0577
     15 C13        -3.4402    2.6484   -0.5018 C.ar      1 <0>        -0.0612
     16 C14        -2.6413    3.6736   -1.0330 C.ar      1 <0>        -0.0615
     17 C15        -1.3928   -2.1096   -0.8300 C.ar      1 <0>        -0.0398
     18 C16         4.7823   -0.0727    0.9345 C.3       1 <0>        -0.0130
     19 C17         4.8514   -1.1450   -1.2145 C.3       1 <0>        -0.0130
     20 C18        -2.1861   -2.8632   -1.6881 C.ar      1 <0>        -0.0586
     21 C19        -3.9824   -2.6326   -0.1463 C.ar      1 <0>         0.0279
     22 C20        -3.5067   -3.1341   -1.3471 C.ar      1 <0>        -0.0436
     23 H1          1.2437    2.0504   -1.2230 H         1 <0>         0.0359
     24 H2          1.2667    2.8607    0.3862 H         1 <0>         0.0359
     25 H3         -0.3137   -1.4937    1.6004 H         1 <0>         0.0410
     26 H4          1.7288   -0.8758    1.3244 H         1 <0>         0.0323
     27 H5          2.4348    0.7184    1.5400 H         1 <0>         0.0323
     28 H6          2.2355   -0.8072   -1.1239 H         1 <0>         0.0429
     29 H7          3.0375    0.7548   -0.9314 H         1 <0>         0.0429
     30 H8         -1.2969    0.0683    3.2620 H         1 <0>         0.0239
     31 H9         -2.8456    0.0366    2.4207 H         1 <0>         0.0239
     32 H10        -2.1839   -1.4443    3.1085 H         1 <0>         0.0239
     33 H11        -3.5118    0.7478    0.4686 H         1 <0>         0.0624
     34 H12        -0.6315    4.3757   -1.4016 H         1 <0>         0.0621
     35 H13        -4.5227    2.7358   -0.5456 H         1 <0>         0.0618
     36 H14        -3.1130    4.5442   -1.4806 H         1 <0>         0.0618
     37 H15        -0.3598   -1.9024   -1.0840 H         1 <0>         0.0636
     38 H16         5.7785   -0.5051    1.0899 H         1 <0>         0.0391
     39 H17         4.9205    0.9653    0.6103 H         1 <0>         0.0391
     40 H18         4.3168   -0.0864    1.9248 H         1 <0>         0.0391
     41 H19         4.3002   -1.7625   -1.9325 H         1 <0>         0.0391
     42 H20         5.1697   -0.2267   -1.7213 H         1 <0>         0.0391
     43 H21         5.7456   -1.7138   -0.9363 H         1 <0>         0.0391
     44 H22        -1.7754   -3.2404   -2.6198 H         1 <0>         0.0619
     45 H23        -5.0053   -2.8154    0.1658 H         1 <0>         0.0829
     46 H24        -4.1432   -3.7196   -2.0005 H         1 <0>         0.0633
@<TRIPOS>BOND
     1    1   10 1
     2    1   18 1
     3    1   19 1
     4    2   13 ar
     5    2   21 ar
     6    3    4 2
     7    3    6 1
     8    3    7 1
     9    4    5 1
    10    4    9 1
    11    5    8 1
    12    5   23 1
    13    5   24 1
    14    6   11 1
    15    6   13 1
    16    6   25 1
    17    7    8 ar
    18    7   12 ar
    19    8   14 ar
    20    9   10 1
    21    9   26 1
    22    9   27 1
    23   10   28 1
    24   10   29 1
    25   11   30 1
    26   11   31 1
    27   11   32 1
    28   12   15 ar
    29   12   33 1
    30   13   17 ar
    31   14   16 ar
    32   14   34 1
    33   15   16 ar
    34   15   35 1
    35   16   36 1
    36   17   20 ar
    37   17   37 1
    38   18   38 1
    39   18   39 1
    40   18   40 1
    41   19   41 1
    42   19   42 1
    43   19   43 1
    44   20   22 ar
    45   20   44 1
    46   21   22 ar
    47   21   45 1
    48   22   46 1
