@<TRIPOS>MOLECULE
DB08988
   42    43     0     0     0
SMALL
USER_CHARGES

@<TRIPOS>ATOM
      1 O1         -1.8881    1.4393   -0.1133 O.3       1 <0>        -0.4643
      2 O2         -0.8884    1.7511    1.9459 O.2       1 <0>        -0.2498
      3 N1          3.1218    0.5813   -0.5433 N.3       1 <0>        -0.3053
      4 C1         -0.0788    0.0330    0.4359 C.3       1 <0>         0.0938
      5 C2          0.8850   -0.3030    1.6023 C.3       1 <0>        -0.0320
      6 C3          0.6471    0.5856   -0.8189 C.3       1 <0>        -0.0203
      7 C4          2.0838    0.6335    1.7663 C.3       1 <0>        -0.0389
      8 C5          1.9792   -0.0851   -1.1812 C.3       1 <0>        -0.0001
      9 C6          3.2739    0.2586    0.8794 C.3       1 <0>        -0.0014
     10 C7         -0.9662   -1.2023    0.1815 C.ar      1 <0>        -0.0306
     11 C8         -0.9820    1.1748    0.8707 C.2       1 <0>         0.3177
     12 C9          4.3603    0.2465   -1.2549 C.3       1 <0>        -0.0128
     13 C10        -1.7358   -1.7212    1.2163 C.ar      1 <0>        -0.0575
     14 C11        -0.9879   -1.7854   -1.0801 C.ar      1 <0>        -0.0575
     15 C12        -2.5382   -2.8388    0.9861 C.ar      1 <0>        -0.0615
     16 C13        -1.7904   -2.9029   -1.3102 C.ar      1 <0>        -0.0615
     17 C14        -2.5656   -3.4297   -0.2771 C.ar      1 <0>        -0.0617
     18 C15        -2.8074    2.4998    0.1663 C.3       1 <0>         0.0897
     19 C16        -3.7401    2.6679   -1.0141 C.3       1 <0>        -0.0306
     20 H1          1.2628   -1.3295    1.4924 H         1 <0>         0.0279
     21 H2          0.3406   -0.3051    2.5567 H         1 <0>         0.0279
     22 H3          0.8496    1.6600   -0.6812 H         1 <0>         0.0291
     23 H4         -0.0109    0.5822   -1.6980 H         1 <0>         0.0291
     24 H5          1.8036    1.6830    1.6209 H         1 <0>         0.0278
     25 H6          2.4231    0.5545    2.8077 H         1 <0>         0.0278
     26 H7          1.9693   -1.1630   -0.9794 H         1 <0>         0.0427
     27 H8          2.0799    0.0213   -2.2698 H         1 <0>         0.0427
     28 H9          4.1370    0.8177    1.2648 H         1 <0>         0.0426
     29 H10         3.5104   -0.8055    1.0135 H         1 <0>         0.0426
     30 H11         4.3034    0.5655   -2.3018 H         1 <0>         0.0391
     31 H12         4.5705   -0.8289   -1.2314 H         1 <0>         0.0391
     32 H13         5.2144    0.7764   -0.8181 H         1 <0>         0.0391
     33 H14        -1.7385   -1.2736    2.2057 H         1 <0>         0.0621
     34 H15        -0.3956   -1.4350   -1.9161 H         1 <0>         0.0621
     35 H16        -3.1434   -3.2480    1.7899 H         1 <0>         0.0618
     36 H17        -1.8092   -3.3662   -2.2924 H         1 <0>         0.0618
     37 H18        -3.1900   -4.3001   -0.4561 H         1 <0>         0.0618
     38 H19        -3.3863    2.2535    1.0635 H         1 <0>         0.0694
     39 H20        -2.2521    3.4291    0.3350 H         1 <0>         0.0694
     40 H21        -4.4586    3.4724   -0.8339 H         1 <0>         0.0262
     41 H22        -3.1737    2.8963   -1.9230 H         1 <0>         0.0262
     42 H23        -4.2888    1.7399   -1.2065 H         1 <0>         0.0262
@<TRIPOS>BOND
     1    1   11 1
     2    1   18 1
     3    2   11 2
     4    3    8 1
     5    3    9 1
     6    3   12 1
     7    4    5 1
     8    4    6 1
     9    4   10 1
    10    4   11 1
    11    5    7 1
    12    5   20 1
    13    5   21 1
    14    6    8 1
    15    6   22 1
    16    6   23 1
    17    7    9 1
    18    7   24 1
    19    7   25 1
    20    8   26 1
    21    8   27 1
    22    9   28 1
    23    9   29 1
    24   10   13 ar
    25   10   14 ar
    26   12   30 1
    27   12   31 1
    28   12   32 1
    29   13   15 ar
    30   13   33 1
    31   14   16 ar
    32   14   34 1
    33   15   17 ar
    34   15   35 1
    35   16   17 ar
    36   16   36 1
    37   17   37 1
    38   18   19 1
    39   18   38 1
    40   18   39 1
    41   19   40 1
    42   19   41 1
    43   19   42 1
