@<TRIPOS>MOLECULE
DB08976
   46    48     0     0     0
SMALL
USER_CHARGES

@<TRIPOS>ATOM
      1 F1         -7.3261   -2.6106    0.1144 F         1 <0>        -0.1658
      2 F2         -7.3640   -0.4425    0.0740 F         1 <0>        -0.1658
      3 F3         -6.7928   -1.5505   -1.7078 F         1 <0>        -0.1658
      4 O1          3.2544    0.2033    0.0203 O.3       1 <0>        -0.4584
      5 O2          6.0590    0.1174   -0.3260 O.3       1 <0>        -0.3861
      6 O3          7.4071   -2.2251    0.2934 O.3       1 <0>        -0.3923
      7 O4          1.3713   -0.4348   -1.1398 O.2       1 <0>        -0.2449
      8 N1         -0.8505    0.6592    0.0788 N.pl3     1 <0>        -0.3133
      9 N2         -4.8786    0.5514   -1.0950 N.ar      1 <0>        -0.2543
     10 C1         -3.0431   -0.4573    0.0968 C.ar      1 <0>         0.0221
     11 C2         -2.2120    0.5982   -0.3022 C.ar      1 <0>         0.0421
     12 C3         -4.3882   -0.4406   -0.3281 C.ar      1 <0>         0.0844
     13 C4         -5.2133   -1.4893    0.0685 C.ar      1 <0>         0.0807
     14 C5          0.0229    1.7353    0.3107 C.ar      1 <0>         0.0454
     15 C6         -2.5648   -1.5087    0.8970 C.ar      1 <0>        -0.0508
     16 C7          1.3965    1.6161    0.0760 C.ar      1 <0>         0.0801
     17 C8         -2.7145    1.6218   -1.0925 C.ar      1 <0>        -0.0218
     18 C9         -4.7380   -2.5347    0.8641 C.ar      1 <0>        -0.0480
     19 C10        -3.4121   -2.5448    1.2791 C.ar      1 <0>        -0.0605
     20 C11         5.3405   -1.0127    0.1740 C.3       1 <0>         0.1122
     21 C12         3.9285   -0.9878   -0.3997 C.3       1 <0>         0.1208
     22 C13        -6.6498   -1.5227   -0.3530 C.3       1 <0>         0.4194
     23 C14        -0.4916    2.9468    0.7837 C.ar      1 <0>        -0.0397
     24 C15        -4.0435    1.5516   -1.4584 C.ar      1 <0>         0.0300
     25 C16         2.2465    2.6968    0.3117 C.ar      1 <0>        -0.0460
     26 C17         1.9699    0.3699   -0.4169 C.2       1 <0>         0.3411
     27 C18         0.3582    4.0275    1.0193 C.ar      1 <0>        -0.0600
     28 C19         6.0905   -2.2699   -0.2465 C.3       1 <0>         0.0733
     29 C20         1.7273    3.9025    0.7834 C.ar      1 <0>        -0.0609
     30 H1         -0.4018   -0.2495    0.1263 H         1 <0>         0.1522
     31 H2         -1.5382   -1.5484    1.2504 H         1 <0>         0.0625
     32 H3         -2.1073    2.4454   -1.4502 H         1 <0>         0.0651
     33 H4         -5.3868   -3.3503    1.1711 H         1 <0>         0.0624
     34 H5         -3.0396   -3.3544    1.8993 H         1 <0>         0.0618
     35 H6          5.3241   -0.9089    1.2640 H         1 <0>         0.0650
     36 H7          3.9643   -0.9925   -1.4959 H         1 <0>         0.0724
     37 H8          3.3648   -1.8606   -0.0506 H         1 <0>         0.0724
     38 H9         -1.5488    3.0693    1.0032 H         1 <0>         0.0636
     39 H10        -4.4903    2.3196   -2.0813 H         1 <0>         0.0830
     40 H11         3.3156    2.6381    0.1250 H         1 <0>         0.0626
     41 H12         6.1824   -2.3302   -1.3361 H         1 <0>         0.0584
     42 H13         5.5898   -3.1694    0.1248 H         1 <0>         0.0584
     43 H14        -0.0449    4.9647    1.3916 H         1 <0>         0.0618
     44 H15         2.3884    4.7448    0.9652 H         1 <0>         0.0618
     45 H16         6.0803    0.0550   -1.2963 H         1 <0>         0.2100
     46 H17         7.8586   -3.0385    0.0103 H         1 <0>         0.2095
@<TRIPOS>BOND
     1    1   22 1
     2    2   22 1
     3    3   22 1
     4    4   21 1
     5    4   26 1
     6    5   20 1
     7    5   45 1
     8    6   28 1
     9    6   46 1
    10    7   26 2
    11    8   11 1
    12    8   14 1
    13    8   30 1
    14    9   12 ar
    15    9   24 ar
    16   10   11 ar
    17   10   12 ar
    18   10   15 ar
    19   11   17 ar
    20   12   13 ar
    21   13   18 ar
    22   13   22 1
    23   14   16 ar
    24   14   23 ar
    25   15   19 ar
    26   15   31 1
    27   16   25 ar
    28   16   26 1
    29   17   24 ar
    30   17   32 1
    31   18   19 ar
    32   18   33 1
    33   19   34 1
    34   20   21 1
    35   20   28 1
    36   20   35 1
    37   21   36 1
    38   21   37 1
    39   23   27 ar
    40   23   38 1
    41   24   39 1
    42   25   29 ar
    43   25   40 1
    44   27   29 ar
    45   27   43 1
    46   28   41 1
    47   28   42 1
    48   29   44 1
