@<TRIPOS>MOLECULE
DB08899
   48    50     0     0     0
SMALL
USER_CHARGES

@<TRIPOS>ATOM
      1 S1         -0.7119   -1.3978    1.4420 S.2       1 <0>        -0.0174
      2 F1          4.8946    2.0380    0.5457 F         1 <0>        -0.2046
      3 F2         -3.8021   -3.9593   -0.2820 F         1 <0>        -0.1659
      4 F3         -5.6291   -3.8610    0.8826 F         1 <0>        -0.1659
      5 F4         -5.7068   -3.6309   -1.2783 F         1 <0>        -0.1659
      6 O1         -2.5202    2.7122   -0.8808 O.2       1 <0>        -0.2725
      7 O2          6.5808    0.2908   -0.4439 O.2       1 <0>        -0.2701
      8 N1          0.2395    0.8846    0.1724 N.pl3     1 <0>        -0.2676
      9 N2         -2.0147    0.6377    0.0960 N.am      1 <0>        -0.2196
     10 N3          6.0414   -1.8872    0.1411 N.am      1 <0>        -0.3143
     11 N4         -8.3349   -1.8952    0.0813 N.1       1 <0>        -0.1909
     12 C1         -0.2581    2.2231   -0.1529 C.3       1 <0>         0.1123
     13 C2         -1.7393    1.9082   -0.3813 C.2       1 <0>         0.2489
     14 C3         -0.2177    3.1947    1.0354 C.3       1 <0>        -0.0349
     15 C4          0.3121    2.8340   -1.4358 C.3       1 <0>        -0.0349
     16 C5         -0.8374    0.0094    0.5226 C.2       1 <0>         0.1515
     17 C6          1.6247    0.5217    0.0913 C.ar      1 <0>         0.0392
     18 C7         -3.3365    0.0967    0.0919 C.ar      1 <0>         0.0436
     19 C8          2.6078    1.4710    0.3616 C.ar      1 <0>        -0.0042
     20 C9          1.9822   -0.7791   -0.2568 C.ar      1 <0>        -0.0394
     21 C10        -3.5274   -1.2795   -0.0338 C.ar      1 <0>        -0.0270
     22 C11        -4.4373    0.9447    0.2140 C.ar      1 <0>        -0.0386
     23 C12         3.9551    1.1181    0.2834 C.ar      1 <0>         0.1372
     24 C13         3.3294   -1.1320   -0.3353 C.ar      1 <0>        -0.0451
     25 C14        -4.8185   -1.8074   -0.0376 C.ar      1 <0>         0.0739
     26 C15         4.3158   -0.1836   -0.0651 C.ar      1 <0>         0.0719
     27 C16        -5.7285    0.4168    0.2104 C.ar      1 <0>        -0.0420
     28 C17        -5.9191   -0.9593    0.0844 C.ar      1 <0>         0.0635
     29 C18        -4.9846   -3.2871   -0.1743 C.3       1 <0>         0.4187
     30 C19         5.7194   -0.5562   -0.1480 C.2       1 <0>         0.2466
     31 C20        -7.2538   -1.4763    0.0827 C.1       1 <0>         0.0997
     32 C21         7.3909   -2.4043    0.1248 C.3       1 <0>         0.0004
     33 H1          0.7863    3.5564    1.2621 H         1 <0>         0.0255
     34 H2         -0.8330    4.0806    0.8370 H         1 <0>         0.0255
     35 H3         -0.6102    2.7276    1.9467 H         1 <0>         0.0255
     36 H4         -0.2445    3.7324   -1.7274 H         1 <0>         0.0255
     37 H5          1.3587    3.1317   -1.3337 H         1 <0>         0.0255
     38 H6          0.2465    2.1268   -2.2711 H         1 <0>         0.0255
     39 H7          2.3864    2.4883    0.6495 H         1 <0>         0.0665
     40 H8          1.2537   -1.5245   -0.5577 H         1 <0>         0.0636
     41 H9         -2.7043   -1.9518   -0.2419 H         1 <0>         0.0642
     42 H10        -4.3401    2.0141    0.3687 H         1 <0>         0.0637
     43 H11         3.5719   -2.1422   -0.6532 H         1 <0>         0.0626
     44 H12        -6.5756    1.0903    0.3182 H         1 <0>         0.0631
     45 H13         5.3182   -2.5248    0.4577 H         1 <0>         0.1487
     46 H14         7.3541   -3.4614   -0.1480 H         1 <0>         0.0426
     47 H15         7.8118   -2.2964    1.1275 H         1 <0>         0.0426
     48 H16         8.0043   -1.8527   -0.5919 H         1 <0>         0.0426
@<TRIPOS>BOND
     1    1   16 2
     2    2   23 1
     3    3   29 1
     4    4   29 1
     5    5   29 1
     6    6   13 2
     7    7   30 2
     8    8   12 1
     9    8   16 1
    10    8   17 1
    11    9   13 am
    12    9   16 1
    13    9   18 1
    14   10   30 am
    15   10   32 1
    16   10   45 1
    17   11   31 3
    18   12   13 1
    19   12   14 1
    20   12   15 1
    21   14   33 1
    22   14   34 1
    23   14   35 1
    24   15   36 1
    25   15   37 1
    26   15   38 1
    27   17   19 ar
    28   17   20 ar
    29   18   21 ar
    30   18   22 ar
    31   19   23 ar
    32   19   39 1
    33   20   24 ar
    34   20   40 1
    35   21   25 ar
    36   21   41 1
    37   22   27 ar
    38   22   42 1
    39   23   26 ar
    40   24   26 ar
    41   24   43 1
    42   25   28 ar
    43   25   29 1
    44   26   30 1
    45   27   28 ar
    46   27   44 1
    47   28   31 1
    48   32   46 1
    49   32   47 1
    50   32   48 1
