@<TRIPOS>MOLECULE
DB08907
   56    59     0     0     0
SMALL
USER_CHARGES

@<TRIPOS>ATOM
      1 S1          2.3657    0.2821   -0.9911 S.3       1 <0>        -0.0929
      2 F1          6.6618   -4.5317    0.2708 F         1 <0>        -0.2055
      3 O1         -2.3046   -0.9832    0.6269 O.3       1 <0>        -0.3612
      4 O2         -4.6167    1.2835   -1.1013 O.3       1 <0>        -0.3862
      5 O3         -4.9996   -1.2889   -2.4694 O.3       1 <0>        -0.3865
      6 O4         -4.6579   -3.4877   -0.6379 O.3       1 <0>        -0.3865
      7 O5         -1.6360   -3.0645    2.2899 O.3       1 <0>        -0.3924
      8 C1         -3.7567    0.1507   -0.9786 C.3       1 <0>         0.1137
      9 C2         -4.5926   -1.1256   -1.1096 C.3       1 <0>         0.1121
     10 C3         -3.0561    0.2113    0.3874 C.3       1 <0>         0.1125
     11 C4         -3.7878   -2.3609   -0.7065 C.3       1 <0>         0.1117
     12 C5         -3.1215   -2.1544    0.6549 C.3       1 <0>         0.1108
     13 C6         -2.0990    1.3834    0.4821 C.ar      1 <0>        -0.0160
     14 C7         -2.2243   -3.3298    1.0293 C.3       1 <0>         0.0729
     15 C8         -1.0409    1.4952   -0.4201 C.ar      1 <0>        -0.0523
     16 C9         -2.2767    2.3502    1.4718 C.ar      1 <0>        -0.0558
     17 C10        -0.1608    2.5736   -0.3326 C.ar      1 <0>        -0.0393
     18 C11        -0.3386    3.5404    0.6571 C.ar      1 <0>        -0.0469
     19 C12        -1.3965    3.4286    1.5594 C.ar      1 <0>        -0.0582
     20 C13         0.9642    2.6725   -1.3097 C.3       1 <0>         0.0041
     21 C14         0.5904    4.7042    0.7705 C.3       1 <0>        -0.0394
     22 C15         2.2340    1.9840   -0.8540 C.2       1 <0>        -0.0053
     23 C16         3.3691    2.5486   -0.3151 C.2       1 <0>        -0.0506
     24 C17         3.9448    0.2968   -0.3287 C.2       1 <0>         0.0196
     25 C18         4.3602    1.5711   -0.0110 C.2       1 <0>        -0.0467
     26 C19         4.6484   -0.9544   -0.1738 C.ar      1 <0>        -0.0111
     27 C20         5.8647   -1.1561   -0.8262 C.ar      1 <0>        -0.0508
     28 C21         4.1125   -1.9613    0.6291 C.ar      1 <0>        -0.0508
     29 C22         6.5448   -2.3644   -0.6759 C.ar      1 <0>        -0.0259
     30 C23         4.7926   -3.1697    0.7794 C.ar      1 <0>        -0.0259
     31 C24         6.0088   -3.3713    0.1269 C.ar      1 <0>         0.1234
     32 H1         -3.0434    0.1952   -1.8090 H         1 <0>         0.0649
     33 H2         -5.5152   -1.0513   -0.5222 H         1 <0>         0.0647
     34 H3         -3.8070    0.3100    1.1835 H         1 <0>         0.0673
     35 H4         -3.0334   -2.5762   -1.4733 H         1 <0>         0.0647
     36 H5         -3.8727   -2.0359    1.4476 H         1 <0>         0.0646
     37 H6         -1.4140   -3.4488    0.3021 H         1 <0>         0.0584
     38 H7         -2.7912   -4.2632    1.0957 H         1 <0>         0.0584
     39 H8         -0.8956    0.7389   -1.1873 H         1 <0>         0.0624
     40 H9         -5.2631    1.2513   -0.3755 H         1 <0>         0.2100
     41 H10        -4.2003   -1.3487   -3.0198 H         1 <0>         0.2100
     42 H11        -5.3239   -3.3117    0.0485 H         1 <0>         0.2100
     43 H12        -3.0961    2.2772    2.1817 H         1 <0>         0.0621
     44 H13        -1.5494    4.1724    2.3368 H         1 <0>         0.0620
     45 H14         0.6496    2.2392   -2.2704 H         1 <0>         0.0367
     46 H15         1.1872    3.7149   -1.5645 H         1 <0>         0.0367
     47 H16        -1.0656   -3.8219    2.5054 H         1 <0>         0.2095
     48 H17         0.2626    5.3981    1.5535 H         1 <0>         0.0278
     49 H18         0.6211    5.2830   -0.1575 H         1 <0>         0.0278
     50 H19         1.5955    4.3768    1.0454 H         1 <0>         0.0278
     51 H20         3.4953    3.6111   -0.1535 H         1 <0>         0.0626
     52 H21         5.3273    1.8011    0.4189 H         1 <0>         0.0629
     53 H22         6.2970   -0.3839   -1.4582 H         1 <0>         0.0625
     54 H23         3.1712   -1.8242    1.1562 H         1 <0>         0.0625
     55 H24         7.4915   -2.5221   -1.1843 H         1 <0>         0.0646
     56 H25         4.3767   -3.9532    1.4061 H         1 <0>         0.0646
@<TRIPOS>BOND
     1    1   22 1
     2    1   24 1
     3    2   31 1
     4    3   10 1
     5    3   12 1
     6    4    8 1
     7    4   40 1
     8    5    9 1
     9    5   41 1
    10    6   11 1
    11    6   42 1
    12    7   14 1
    13    7   47 1
    14    8    9 1
    15    8   10 1
    16    8   32 1
    17    9   11 1
    18    9   33 1
    19   10   13 1
    20   10   34 1
    21   11   12 1
    22   11   35 1
    23   12   14 1
    24   12   36 1
    25   13   15 ar
    26   13   16 ar
    27   14   37 1
    28   14   38 1
    29   15   17 ar
    30   15   39 1
    31   16   19 ar
    32   16   43 1
    33   17   18 ar
    34   17   20 1
    35   18   19 ar
    36   18   21 1
    37   19   44 1
    38   20   22 1
    39   20   45 1
    40   20   46 1
    41   21   48 1
    42   21   49 1
    43   21   50 1
    44   22   23 2
    45   23   25 1
    46   23   51 1
    47   24   25 2
    48   24   26 1
    49   25   52 1
    50   26   27 ar
    51   26   28 ar
    52   27   29 ar
    53   27   53 1
    54   28   30 ar
    55   28   54 1
    56   29   31 ar
    57   29   55 1
    58   30   31 ar
    59   30   56 1
