@<TRIPOS>MOLECULE
DB08877
   41    44     0     0     0
SMALL
USER_CHARGES

@<TRIPOS>ATOM
      1 N1         -0.4962    0.7736    0.3812 N.pl3     1 <0>        -0.2665
      2 N2         -0.1230    0.3424    1.5981 N.2       1 <0>        -0.1787
      3 N3          3.2830    1.4987   -1.3115 N.2       1 <0>        -0.2346
      4 N4         -1.2519    4.4320    0.7120 N.1       1 <0>        -0.1965
      5 N5          6.0510   -1.1122    0.0465 N.pl3     1 <0>        -0.3457
      6 N6          5.5764    0.6978   -1.4743 N.2       1 <0>        -0.2179
      7 C1         -2.7903   -0.2370    0.2170 C.3       1 <0>        -0.0176
      8 C2         -4.2649   -0.0398   -0.1201 C.3       1 <0>        -0.0482
      9 C3         -2.3734   -1.3225   -0.7703 C.3       1 <0>        -0.0482
     10 C4         -1.9714    1.0354    0.0891 C.3       1 <0>         0.0682
     11 C5         -4.7790   -1.4532   -0.3751 C.3       1 <0>        -0.0527
     12 C6         -3.5603   -2.2803   -0.7880 C.3       1 <0>        -0.0527
     13 C7         -2.5495    2.1581    0.9826 C.3       1 <0>         0.0574
     14 C8          0.5414    0.9305   -0.4902 C.2       1 <0>         0.0350
     15 C9          1.6721    0.5774    0.2051 C.2       1 <0>         0.0385
     16 C10        -1.8233    3.4293    0.8317 C.1       1 <0>         0.0646
     17 C11         1.2027    0.2244    1.4846 C.2       1 <0>         0.0586
     18 C12         2.9921    0.5985   -0.3442 C.cat     1 <0>         0.0863
     19 C13         3.9795   -0.2831    0.0934 C.2       1 <0>         0.0447
     20 C14         5.2256   -0.1723   -0.5113 C.2       1 <0>         0.1419
     21 C15         4.0735   -1.3301    1.0456 C.2       1 <0>        -0.0330
     22 C16         5.3608   -1.8217    0.9955 C.2       1 <0>         0.0042
     23 C17         4.5401    1.4930   -1.8096 C.2       1 <0>         0.1189
     24 H1         -2.7120   -0.6388    1.2371 H         1 <0>         0.0322
     25 H2         -4.3845    0.5658   -1.0269 H         1 <0>         0.0269
     26 H3         -4.8281    0.4392    0.6868 H         1 <0>         0.0269
     27 H4         -1.4508   -1.8322   -0.4761 H         1 <0>         0.0269
     28 H5         -2.2230   -0.9052   -1.7737 H         1 <0>         0.0269
     29 H6         -1.9723    1.3803   -0.9548 H         1 <0>         0.0557
     30 H7         -5.5562   -1.4605   -1.1459 H         1 <0>         0.0265
     31 H8         -5.2184   -1.8713    0.5380 H         1 <0>         0.0265
     32 H9         -3.4046   -3.0940   -0.0702 H         1 <0>         0.0265
     33 H10        -3.6914   -2.7347   -1.7753 H         1 <0>         0.0265
     34 H11        -2.5241    1.8524    2.0356 H         1 <0>         0.0439
     35 H12        -3.5979    2.3481    0.7296 H         1 <0>         0.0439
     36 H13         0.3852    1.2699   -1.5055 H         1 <0>         0.0833
     37 H14         1.7568   -0.0974    2.3542 H         1 <0>         0.0854
     38 H15         3.3019   -1.7118    1.6983 H         1 <0>         0.0640
     39 H16         7.0191   -1.2598   -0.2032 H         1 <0>         0.1668
     40 H17         5.8448   -2.6150    1.5475 H         1 <0>         0.0807
     41 H18         4.7406    2.2262   -2.5832 H         1 <0>         0.1048
@<TRIPOS>BOND
     1    1    2 1
     2    1   10 1
     3    1   14 2
     4    2   17 1
     5    3   18 1
     6    3   23 2
     7    4   16 3
     8    5   20 1
     9    5   22 2
    10    5   39 1
    11    6   20 2
    12    6   23 1
    13    7    8 1
    14    7    9 1
    15    7   10 1
    16    7   24 1
    17    8   11 1
    18    8   25 1
    19    8   26 1
    20    9   12 1
    21    9   27 1
    22    9   28 1
    23   10   13 1
    24   10   29 1
    25   11   12 1
    26   11   30 1
    27   11   31 1
    28   12   32 1
    29   12   33 1
    30   13   16 1
    31   13   34 1
    32   13   35 1
    33   14   15 1
    34   14   36 1
    35   15   17 2
    36   15   18 1
    37   17   37 1
    38   18   19 1
    39   19   20 2
    40   19   21 2
    41   21   22 1
    42   21   38 1
    43   22   40 1
    44   23   41 1
