@<TRIPOS>MOLECULE
DB08814
   24    24     0     0     0
SMALL
USER_CHARGES

@<TRIPOS>ATOM
      1 F1         -4.5220    0.6540   -0.3003 F         1 <0>        -0.1659
      2 F2         -3.6082    2.0304    1.1048 F         1 <0>        -0.1659
      3 F3         -3.2336    2.2482   -1.0262 F         1 <0>        -0.1659
      4 O1          1.4222    0.6768    0.6917 O.3       1 <0>        -0.4252
      5 O2          1.0692   -3.2437   -0.4258 O.3       1 <0>        -0.4770
      6 O3          2.2018   -1.9429    1.0544 O.2       1 <0>        -0.2450
      7 O4          1.7664    0.9053   -1.6125 O.2       1 <0>        -0.2507
      8 C1         -2.1692    0.4255    0.0684 C.ar      1 <0>         0.0583
      9 C2          0.2013    0.1300    0.4301 C.ar      1 <0>         0.1461
     10 C3          0.0561   -1.2465    0.2576 C.ar      1 <0>         0.1011
     11 C4         -0.9114    0.9660    0.3354 C.ar      1 <0>        -0.0068
     12 C5         -2.3145   -0.9511   -0.1041 C.ar      1 <0>        -0.0491
     13 C6         -1.2017   -1.7870   -0.0096 C.ar      1 <0>        -0.0437
     14 C7         -3.3587    1.3189   -0.0342 C.3       1 <0>         0.4175
     15 C8          1.2041   -2.1372    0.3542 C.2       1 <0>         0.3404
     16 C9          2.1432    1.0417   -0.4561 C.2       1 <0>         0.3092
     17 C10         3.4659    1.6305   -0.0640 C.3       1 <0>         0.0336
     18 H1         -0.7961    2.0388    0.4706 H         1 <0>         0.0660
     19 H2         -3.2864   -1.3909   -0.3101 H         1 <0>         0.0623
     20 H3         -1.3494   -2.8564   -0.1360 H         1 <0>         0.0627
     21 H4          3.3062    2.5232    0.5456 H         1 <0>         0.0342
     22 H5          4.0172    1.9160   -0.9643 H         1 <0>         0.0342
     23 H6          4.0515    0.8886    0.4843 H         1 <0>         0.0342
     24 H7          1.8463   -3.8381   -0.3539 H         1 <0>         0.2954
@<TRIPOS>BOND
     1    1   14 1
     2    2   14 1
     3    3   14 1
     4    4    9 1
     5    4   16 1
     6    5   15 1
     7    5   24 1
     8    6   15 2
     9    7   16 2
    10    8   11 ar
    11    8   12 ar
    12    8   14 1
    13    9   10 ar
    14    9   11 ar
    15   10   13 ar
    16   10   15 1
    17   11   18 1
    18   12   13 ar
    19   12   19 1
    20   13   20 1
    21   16   17 1
    22   17   21 1
    23   17   22 1
    24   17   23 1
