@<TRIPOS>MOLECULE
DB08985
   28    28     0     0     0
SMALL
USER_CHARGES

@<TRIPOS>ATOM
      1 O1         -0.1276   -0.6083    2.0253 O.3       1 <0>        -0.3859
      2 O2          3.7448    2.3850    0.2665 O.3       1 <0>        -0.5068
      3 N1         -2.3226   -0.2742    0.1896 N.3       1 <0>        -0.3135
      4 C1          0.0643   -0.8104    0.6187 C.3       1 <0>         0.0927
      5 C2         -0.9436    0.0526   -0.1663 C.3       1 <0>         0.0261
      6 C3          1.4774   -0.4862    0.2692 C.ar      1 <0>        -0.0145
      7 C4         -3.2579    0.5665   -0.5420 C.3       1 <0>        -0.0068
      8 C5          1.9555    0.8139    0.4329 C.ar      1 <0>        -0.0145
      9 C6          2.3210   -1.4832   -0.2208 C.ar      1 <0>        -0.0559
     10 C7          3.2775    1.1169    0.1064 C.ar      1 <0>         0.1172
     11 C8          3.6426   -1.1803   -0.5471 C.ar      1 <0>        -0.0580
     12 C9         -4.6932    0.2437   -0.1813 C.3       1 <0>        -0.0526
     13 C10         4.1211    0.1196   -0.3834 C.ar      1 <0>        -0.0202
     14 H1         -0.1404   -1.8704    0.4225 H         1 <0>         0.0656
     15 H2         -0.7839   -0.0891   -1.2428 H         1 <0>         0.0453
     16 H3         -0.7806    1.1128    0.0611 H         1 <0>         0.0453
     17 H4         -2.5062   -1.2564   -0.0129 H         1 <0>         0.1220
     18 H5         -3.0732    1.6230   -0.3140 H         1 <0>         0.0421
     19 H6         -3.1277    0.4314   -1.6223 H         1 <0>         0.0421
     20 H7          1.3159    1.5995    0.8267 H         1 <0>         0.0658
     21 H8          1.9638   -2.5010   -0.3540 H         1 <0>         0.0621
     22 H9         -1.0614   -0.7988    2.2196 H         1 <0>         0.2103
     23 H10         4.2995   -1.9565   -0.9285 H         1 <0>         0.0619
     24 H11        -4.9400   -0.7948   -0.4263 H         1 <0>         0.0242
     25 H12        -4.8765    0.3954    0.8878 H         1 <0>         0.0242
     26 H13        -5.3791    0.8923   -0.7359 H         1 <0>         0.0242
     27 H14         5.1530    0.3426   -0.6411 H         1 <0>         0.0654
     28 H15         4.6776    2.4142   -0.0075 H         1 <0>         0.2921
@<TRIPOS>BOND
     1    1    4 1
     2    1   22 1
     3    2   10 1
     4    2   28 1
     5    3    5 1
     6    3    7 1
     7    3   17 1
     8    4    5 1
     9    4    6 1
    10    4   14 1
    11    5   15 1
    12    5   16 1
    13    6    8 ar
    14    6    9 ar
    15    7   12 1
    16    7   18 1
    17    7   19 1
    18    8   10 ar
    19    8   20 1
    20    9   11 ar
    21    9   21 1
    22   10   13 ar
    23   11   13 ar
    24   11   23 1
    25   12   24 1
    26   12   25 1
    27   12   26 1
    28   13   27 1
