@<TRIPOS>MOLECULE
DB08897
   63    67     0     0     0
SMALL
USER_CHARGES

@<TRIPOS>ATOM
      1 S1         -0.7474    3.5000   -0.6991 S.3       1 <0>        -0.0978
      2 S2         -5.3303    3.4727   -0.0217 S.3       1 <0>        -0.0978
      3 O1         -2.4692   -0.1325   -0.6124 O.3       1 <0>        -0.4532
      4 O2          3.9470    0.4636    0.7931 O.3       1 <0>        -0.4918
      5 O3         -2.4281    0.5055   -2.8227 O.2       1 <0>        -0.2467
      6 O4         -3.1790    2.9804   -2.2415 O.3       1 <0>        -0.3690
      7 N1          0.0840   -2.4052    0.0318 N.4       1 <0>         0.2460
      8 C1         -2.4928   -2.4807    0.0089 C.3       1 <0>         0.0108
      9 C2         -0.4499   -1.3861   -0.9900 C.3       1 <0>         0.0082
     10 C3         -0.3893   -3.8134   -0.3595 C.3       1 <0>        -0.0296
     11 C4         -0.4526   -2.0563    1.4262 C.3       1 <0>        -0.0296
     12 C5         -1.9814   -1.4207   -0.9782 C.3       1 <0>         0.1457
     13 C6         -1.9179   -3.8382   -0.4068 C.3       1 <0>        -0.0059
     14 C7         -1.9776   -2.1564    1.4186 C.3       1 <0>        -0.0059
     15 C8          1.6044   -2.3638    0.0454 C.3       1 <0>        -0.0268
     16 C9          2.0611   -0.9591    0.4002 C.3       1 <0>         0.0218
     17 C10         3.5787   -0.8710    0.4733 C.3       1 <0>         0.0944
     18 C11        -2.6529    0.7530   -1.6436 C.2       1 <0>         0.3500
     19 C12        -3.1425    2.1006   -1.1125 C.3       1 <0>         0.2256
     20 C13        -2.1147    2.6495   -0.1164 C.2       1 <0>         0.0370
     21 C14        -4.5658    2.0348   -0.5512 C.2       1 <0>         0.0370
     22 C15         5.1585    0.9004    0.3236 C.ar      1 <0>         0.1205
     23 C16        -2.1200    2.5587    1.2581 C.2       1 <0>        -0.0479
     24 C17        -5.3757    0.9314   -0.3960 C.2       1 <0>        -0.0479
     25 C18         6.2051   -0.0045    0.1455 C.ar      1 <0>        -0.0199
     26 C19         5.3450    2.2500    0.0242 C.ar      1 <0>        -0.0199
     27 C20        -0.9867    3.1960    1.8406 C.2       1 <0>        -0.0544
     28 C21        -6.6407    1.2711    0.1648 C.2       1 <0>        -0.0544
     29 C22        -0.1583    3.7494    0.8893 C.2       1 <0>        -0.0240
     30 C23        -6.7493    2.6209    0.4170 C.2       1 <0>        -0.0240
     31 C24         7.4381    0.4401   -0.3316 C.ar      1 <0>        -0.0583
     32 C25         6.5781    2.6947   -0.4530 C.ar      1 <0>        -0.0583
     33 C26         7.6245    1.7895   -0.6308 C.ar      1 <0>        -0.0615
     34 H1         -3.5882   -2.5033    0.0164 H         1 <0>         0.0342
     35 H2         -0.1107   -0.3842   -0.7249 H         1 <0>         0.0852
     36 H3         -0.0499   -1.6701   -1.9696 H         1 <0>         0.0852
     37 H4          0.0010   -4.5133    0.3881 H         1 <0>         0.0815
     38 H5          0.0446   -4.0530   -1.3369 H         1 <0>         0.0815
     39 H6         -0.1861   -1.0265    1.6722 H         1 <0>         0.0815
     40 H7         -0.0019   -2.7432    2.1506 H         1 <0>         0.0815
     41 H8         -2.3486   -1.6909   -1.9772 H         1 <0>         0.0791
     42 H9         -2.2921   -4.6300    0.2534 H         1 <0>         0.0321
     43 H10        -2.2523   -4.1009   -1.4178 H         1 <0>         0.0321
     44 H11        -2.2969   -2.9346    2.1229 H         1 <0>         0.0321
     45 H12        -2.4149   -1.2203    1.7865 H         1 <0>         0.0321
     46 H13         1.9551   -2.6591   -0.9502 H         1 <0>         0.0816
     47 H14         1.9510   -3.0999    0.7799 H         1 <0>         0.0816
     48 H15         1.7617   -0.2139   -0.3412 H         1 <0>         0.0350
     49 H16         1.6903   -0.6108    1.3669 H         1 <0>         0.0350
     50 H17         3.9574   -1.5436    1.2518 H         1 <0>         0.0698
     51 H18         3.9801   -1.1795   -0.5011 H         1 <0>         0.0698
     52 H19        -2.2751    3.0684   -2.5902 H         1 <0>         0.2117
     53 H20        -2.8866    2.0531    1.8312 H         1 <0>         0.0627
     54 H21        -5.1003   -0.0783   -0.6700 H         1 <0>         0.0627
     55 H22         6.1106   -1.0578    0.3924 H         1 <0>         0.0654
     56 H23         4.5332    2.9593    0.1608 H         1 <0>         0.0654
     57 H24        -0.7873    3.2433    2.9033 H         1 <0>         0.0623
     58 H25        -7.4314    0.5616    0.3715 H         1 <0>         0.0623
     59 H26         0.7654    4.2870    1.0508 H         1 <0>         0.0693
     60 H27        -7.5942    3.1477    0.8376 H         1 <0>         0.0693
     61 H28         8.2554   -0.2629   -0.4643 H         1 <0>         0.0619
     62 H29         6.7234    3.7455   -0.6857 H         1 <0>         0.0619
     63 H30         8.5850    2.1361   -1.0009 H         1 <0>         0.0618
@<TRIPOS>BOND
     1    1   20 1
     2    1   29 1
     3    2   21 1
     4    2   30 1
     5    3   12 1
     6    3   18 1
     7    4   17 1
     8    4   22 1
     9    5   18 2
    10    6   19 1
    11    6   52 1
    12    7    9 1
    13    7   10 1
    14    7   11 1
    15    7   15 1
    16    8   12 1
    17    8   13 1
    18    8   14 1
    19    8   34 1
    20    9   12 1
    21    9   35 1
    22    9   36 1
    23   10   13 1
    24   10   37 1
    25   10   38 1
    26   11   14 1
    27   11   39 1
    28   11   40 1
    29   12   41 1
    30   13   42 1
    31   13   43 1
    32   14   44 1
    33   14   45 1
    34   15   16 1
    35   15   46 1
    36   15   47 1
    37   16   17 1
    38   16   48 1
    39   16   49 1
    40   17   50 1
    41   17   51 1
    42   18   19 1
    43   19   20 1
    44   19   21 1
    45   20   23 2
    46   21   24 2
    47   22   25 ar
    48   22   26 ar
    49   23   27 1
    50   23   53 1
    51   24   28 1
    52   24   54 1
    53   25   31 ar
    54   25   55 1
    55   26   32 ar
    56   26   56 1
    57   27   29 2
    58   27   57 1
    59   28   30 2
    60   28   58 1
    61   29   59 1
    62   30   60 1
    63   31   33 ar
    64   31   61 1
    65   32   33 ar
    66   32   62 1
    67   33   63 1
