@<TRIPOS>MOLECULE
DB08916
   59    62     0     0     0
SMALL
USER_CHARGES

@<TRIPOS>ATOM
      1 Cl1        -7.3444    2.1254   -2.9802 Cl        1 <0>        -0.0805
      2 F1         -7.4921    4.6144   -1.3763 F         1 <0>        -0.2040
      3 O1          2.7089   -5.7375    0.2800 O.3       1 <0>        -0.3760
      4 O2          0.8940   -3.3257    0.5877 O.3       1 <0>        -0.4845
      5 O3          0.3409    1.7394    0.7193 O.2       1 <0>        -0.2705
      6 N1          0.9905   -0.5214    0.6684 N.am      1 <0>        -0.2790
      7 N2         -3.8627   -3.2405    0.5011 N.ar      1 <0>        -0.2352
      8 N3         -3.9089    0.8962    0.6153 N.pl3     1 <0>        -0.2988
      9 N4         -5.0638   -1.1518    0.5370 N.ar      1 <0>        -0.2200
     10 N5          4.8410    3.7653   -0.2747 N.3       1 <0>        -0.3047
     11 C1          1.1217   -4.1756   -0.5313 C.3       1 <0>         0.1255
     12 C2          2.4621   -3.8654   -1.1512 C.3       1 <0>         0.0099
     13 C3          1.3142   -5.5958   -0.0411 C.3       1 <0>         0.0846
     14 C4          3.4158   -4.5986   -0.2291 C.3       1 <0>         0.0512
     15 C5         -0.2581   -2.5970    0.5870 C.ar      1 <0>         0.1442
     16 C6         -0.2252   -1.2075    0.6265 C.ar      1 <0>         0.0766
     17 C7         -1.4837   -3.2682    0.5452 C.ar      1 <0>         0.0081
     18 C8         -2.6472   -1.1745    0.5819 C.ar      1 <0>         0.0424
     19 C9         -2.6934   -2.5777    0.5418 C.ar      1 <0>         0.0796
     20 C10        -1.4187   -0.4923    0.6240 C.ar      1 <0>        -0.0244
     21 C11        -3.8756   -0.5198    0.5770 C.ar      1 <0>         0.1339
     22 C12         1.1977    0.8635    0.7110 C.2       1 <0>         0.2409
     23 C13        -4.9842   -2.4917    0.5014 C.ar      1 <0>         0.1187
     24 C14        -4.8188    1.8367    0.1066 C.ar      1 <0>         0.0339
     25 C15         2.6520    1.2009    0.7475 C.2       1 <0>        -0.0023
     26 C16         4.4955    2.8868    0.8382 C.3       1 <0>         0.0170
     27 C17         3.0531    2.4794    0.7908 C.2       1 <0>        -0.0652
     28 C18        -5.5458    1.5502   -1.0489 C.ar      1 <0>        -0.0194
     29 C19        -4.9956    3.0578    0.7571 C.ar      1 <0>        -0.0377
     30 C20        -6.4498    2.4847   -1.5539 C.ar      1 <0>         0.0778
     31 C21        -5.8996    3.9925    0.2519 C.ar      1 <0>        -0.0232
     32 C22         6.0260    4.5615    0.0471 C.3       1 <0>        -0.0127
     33 C23         5.0671    2.9868   -1.4934 C.3       1 <0>        -0.0127
     34 C24        -6.6267    3.7059   -0.9035 C.ar      1 <0>         0.1417
     35 H1          0.3142   -4.1037   -1.2695 H         1 <0>         0.0757
     36 H2          2.5185   -4.3001   -2.1560 H         1 <0>         0.0324
     37 H3          2.6943   -2.7986   -1.2126 H         1 <0>         0.0324
     38 H4          1.0910   -6.3208   -0.8307 H         1 <0>         0.0597
     39 H5          0.7229   -5.8372    0.8466 H         1 <0>         0.0597
     40 H6          3.7030   -3.9742    0.6237 H         1 <0>         0.0561
     41 H7          4.3246   -4.9270   -0.7411 H         1 <0>         0.0561
     42 H8         -1.5006   -4.3568    0.5250 H         1 <0>         0.0676
     43 H9         -1.4418    0.5855    0.6401 H         1 <0>         0.0645
     44 H10         1.8143   -1.1196    0.6669 H         1 <0>         0.1552
     45 H11        -3.2806    1.2857    1.3129 H         1 <0>         0.1536
     46 H12        -5.9228   -3.0314    0.4682 H         1 <0>         0.1048
     47 H13         3.3742    0.3915    0.7366 H         1 <0>         0.0667
     48 H14         4.6161    3.4253    1.7881 H         1 <0>         0.0470
     49 H15         5.1674    2.0202    0.8955 H         1 <0>         0.0470
     50 H16         2.3225    3.2849    0.8071 H         1 <0>         0.0586
     51 H17        -5.4049    0.6070   -1.5717 H         1 <0>         0.0652
     52 H18        -4.4365    3.2940    1.6588 H         1 <0>         0.0637
     53 H19        -6.0377    4.9432    0.7583 H         1 <0>         0.0647
     54 H20         6.9009    3.9347    0.2548 H         1 <0>         0.0391
     55 H21         6.2732    5.2358   -0.7806 H         1 <0>         0.0391
     56 H22         5.8399    5.1969    0.9203 H         1 <0>         0.0391
     57 H23         5.2996    3.6523   -2.3326 H         1 <0>         0.0391
     58 H24         5.8935    2.2748   -1.3848 H         1 <0>         0.0391
     59 H25         4.1685    2.4316   -1.7836 H         1 <0>         0.0391
@<TRIPOS>BOND
     1    1   30 1
     2    2   34 1
     3    3   13 1
     4    3   14 1
     5    4   11 1
     6    4   15 1
     7    5   22 2
     8    6   16 1
     9    6   22 am
    10    6   44 1
    11    7   19 ar
    12    7   23 ar
    13    8   21 1
    14    8   24 1
    15    8   45 1
    16    9   21 ar
    17    9   23 ar
    18   10   26 1
    19   10   32 1
    20   10   33 1
    21   11   12 1
    22   11   13 1
    23   11   35 1
    24   12   14 1
    25   12   36 1
    26   12   37 1
    27   13   38 1
    28   13   39 1
    29   14   40 1
    30   14   41 1
    31   15   16 ar
    32   15   17 ar
    33   16   20 ar
    34   17   19 ar
    35   17   42 1
    36   18   19 ar
    37   18   20 ar
    38   18   21 ar
    39   20   43 1
    40   22   25 1
    41   23   46 1
    42   24   28 ar
    43   24   29 ar
    44   25   27 2
    45   25   47 1
    46   26   27 1
    47   26   48 1
    48   26   49 1
    49   27   50 1
    50   28   30 ar
    51   28   51 1
    52   29   31 ar
    53   29   52 1
    54   30   34 ar
    55   31   34 ar
    56   31   53 1
    57   32   54 1
    58   32   55 1
    59   32   56 1
    60   33   57 1
    61   33   58 1
    62   33   59 1
