@<TRIPOS>MOLECULE
DB08881
   51    54     0     0     0
SMALL
USER_CHARGES

@<TRIPOS>ATOM
      1 Cl1         5.6740    0.2362    2.8579 Cl        1 <0>        -0.0835
      2 S1         -0.1847    3.6456   -0.6826 S.o2      1 <0>         0.0432
      3 F1         -2.8069    0.7754   -1.2737 F         1 <0>        -0.2027
      4 F2         -3.4447   -0.4304    3.2721 F         1 <0>        -0.2046
      5 O1         -0.0322    4.8115   -1.5328 O.2       1 <0>        -0.1552
      6 O2          0.4666    3.5865    0.6109 O.2       1 <0>        -0.1552
      7 O3         -4.8079   -1.4902    0.9015 O.2       1 <0>        -0.2864
      8 N1         -1.8640    3.2894   -0.5434 N.pl3     1 <0>        -0.2178
      9 N2         -2.3292   -3.7507   -1.6404 N.pl3     1 <0>        -0.3451
     10 N3          0.0698   -3.7889   -1.4237 N.2       1 <0>        -0.2369
     11 C1         -1.4397   -2.2881   -0.2062 C.2       1 <0>         0.0301
     12 C2         -2.8507   -2.1292   -0.2086 C.2       1 <0>         0.0490
     13 C3          0.3565    2.2413   -1.6310 C.3       1 <0>         0.0845
     14 C4         -1.1472   -3.3063   -1.1089 C.2       1 <0>         0.1388
     15 C5          1.8497    2.3022   -1.9069 C.3       1 <0>        -0.0347
     16 C6         -3.1364    0.1435    0.9874 C.ar      1 <0>         0.0944
     17 C7         -2.2713    2.3302    0.4327 C.ar      1 <0>         0.0837
     18 C8         -3.6410   -1.2064    0.5550 C.2       1 <0>         0.2008
     19 C9         -0.3604   -1.6850    0.4596 C.2       1 <0>        -0.0412
     20 C10        -3.3712   -3.0423   -1.1002 C.2       1 <0>         0.0150
     21 C11         0.9225   -2.1468    0.1707 C.2       1 <0>         0.0009
     22 C12        -2.7392    1.0786    0.0316 C.ar      1 <0>         0.1592
     23 C13        -3.0658    0.4598    2.3442 C.ar      1 <0>         0.1371
     24 C14        -2.2004    2.6463    1.7895 C.ar      1 <0>        -0.0338
     25 C15         2.0753   -1.5682    0.8220 C.ar      1 <0>        -0.0163
     26 C16         1.0708   -3.1721   -0.7535 C.2       1 <0>         0.0376
     27 C17         2.3111    1.1138   -2.7338 C.3       1 <0>        -0.0637
     28 C18        -2.5979    1.7111    2.7452 C.ar      1 <0>        -0.0238
     29 C19         2.0531   -0.2324    1.2228 C.ar      1 <0>        -0.0526
     30 C20         3.2105   -2.3463    1.0503 C.ar      1 <0>        -0.0526
     31 C21         3.1658    0.3256    1.8524 C.ar      1 <0>        -0.0428
     32 C22         4.3232   -1.7881    1.6796 C.ar      1 <0>        -0.0428
     33 C23         4.3009   -0.4524    2.0808 C.ar      1 <0>         0.0410
     34 H1         -0.2111    2.2389   -2.5670 H         1 <0>         0.0518
     35 H2          0.1150    1.3388   -1.0625 H         1 <0>         0.0518
     36 H3          2.0979    3.2277   -2.4393 H         1 <0>         0.0279
     37 H4          2.4075    2.3232   -0.9636 H         1 <0>         0.0279
     38 H5         -2.3674    3.2097   -1.4372 H         1 <0>         0.1734
     39 H6         -0.5447   -0.9147    1.1986 H         1 <0>         0.0631
     40 H7         -4.3878   -3.2540   -1.4021 H         1 <0>         0.0815
     41 H8         -2.4182   -4.4878   -2.3258 H         1 <0>         0.1668
     42 H9         -1.8501    3.6213    2.1178 H         1 <0>         0.0638
     43 H10         2.0478   -3.5514   -1.0425 H         1 <0>         0.0836
     44 H11         2.1068    0.1715   -2.2155 H         1 <0>         0.0230
     45 H12         1.8030    1.0894   -3.7031 H         1 <0>         0.0230
     46 H13         3.3886    1.1739   -2.9162 H         1 <0>         0.0230
     47 H14        -2.5453    1.9578    3.8015 H         1 <0>         0.0647
     48 H15         1.2015    0.4179    1.0434 H         1 <0>         0.0624
     49 H16         3.2622   -3.3979    0.7821 H         1 <0>         0.0624
     50 H17         3.1364    1.3697    2.1538 H         1 <0>         0.0632
     51 H18         5.1988   -2.4074    1.8571 H         1 <0>         0.0632
@<TRIPOS>BOND
     1    1   33 1
     2    2    5 2
     3    2    6 2
     4    2    8 1
     5    2   13 1
     6    3   22 1
     7    4   23 1
     8    7   18 2
     9    8   17 1
    10    8   38 1
    11    9   14 1
    12    9   20 2
    13    9   41 1
    14   10   14 2
    15   10   26 1
    16   11   12 2
    17   11   14 1
    18   11   19 2
    19   12   18 1
    20   12   20 1
    21   13   15 1
    22   13   34 1
    23   13   35 1
    24   15   27 1
    25   15   36 1
    26   15   37 1
    27   16   18 1
    28   16   22 ar
    29   16   23 ar
    30   17   22 ar
    31   17   24 ar
    32   19   21 1
    33   19   39 1
    34   20   40 1
    35   21   25 1
    36   21   26 2
    37   23   28 ar
    38   24   28 ar
    39   24   42 1
    40   25   29 ar
    41   25   30 ar
    42   26   43 1
    43   27   44 1
    44   27   45 1
    45   27   46 1
    46   28   47 1
    47   29   31 ar
    48   29   48 1
    49   30   32 ar
    50   30   49 1
    51   31   33 ar
    52   31   50 1
    53   32   33 ar
    54   32   51 1
