@<TRIPOS>MOLECULE
DB08822
   66    71     0     0     0
SMALL
USER_CHARGES

@<TRIPOS>ATOM
      1 O1          0.8040    3.6767   -1.3826 O.3       1 <0>        -0.4638
      2 O2          3.2483   -1.1887    0.9016 O.3       1 <0>        -0.4531
      3 O3          1.0634   -1.5338    1.5391 O.2       1 <0>        -0.2449
      4 O4          5.7410   -2.3897    0.4932 O.3       1 <0>        -0.3921
      5 O5         -3.8436   -0.7958    3.8643 O.3       1 <0>        -0.3201
      6 O6          6.3680   -3.3280   -1.5426 O.3       1 <0>        -0.3958
      7 O7         -1.5727   -1.1089    3.7717 O.2       1 <0>        -0.2188
      8 O8          7.9579   -2.6106   -0.0527 O.2       1 <0>        -0.2021
      9 N1          1.3856    1.8357   -0.0133 N.pl3     1 <0>        -0.2888
     10 N2          1.5127    3.8860    0.8354 N.2       1 <0>        -0.1949
     11 N3         -4.8214   -0.8714    2.8932 N.pl3     1 <0>        -0.1970
     12 N4         -2.9063   -1.3301    1.8738 N.2       1 <0>        -0.1532
     13 C1          1.8184    1.6713    1.2776 C.ar      1 <0>         0.0860
     14 C2          1.1449    0.7954   -0.9879 C.3       1 <0>         0.0531
     15 C3          1.8898    2.9653    1.7860 C.ar      1 <0>         0.0935
     16 C4         -0.2754    0.3020   -0.9252 C.ar      1 <0>        -0.0276
     17 C5          1.2172    3.1750   -0.2297 C.2       1 <0>         0.2995
     18 C6          2.1436    0.5366    2.0214 C.ar      1 <0>         0.0846
     19 C7         -0.5395   -1.0672   -0.9563 C.ar      1 <0>        -0.0563
     20 C8         -1.3275    1.2135   -0.8366 C.ar      1 <0>        -0.0563
     21 C9          2.3087    3.1575    3.1133 C.ar      1 <0>        -0.0341
     22 C10        -2.9080   -0.6135   -0.8104 C.ar      1 <0>        -0.0172
     23 C11         2.5583    0.7462    3.3407 C.ar      1 <0>        -0.0456
     24 C12        -1.8558   -1.5251   -0.8988 C.ar      1 <0>        -0.0537
     25 C13        -2.6438    0.7557   -0.7792 C.ar      1 <0>        -0.0537
     26 C14         2.6401    2.0326    3.8788 C.ar      1 <0>        -0.0588
     27 C15        -4.2731   -1.0885   -0.7520 C.ar      1 <0>        -0.0072
     28 C16         2.0683   -0.8091    1.4840 C.2       1 <0>         0.3417
     29 C17        -4.8909   -1.3651    0.4677 C.ar      1 <0>         0.0277
     30 C18         0.6561    5.0944   -1.5176 C.3       1 <0>         0.0899
     31 C19        -4.9731   -1.2682   -1.9450 C.ar      1 <0>        -0.0534
     32 C20        -6.2086   -1.8216    0.4943 C.ar      1 <0>        -0.0504
     33 C21        -4.1952   -1.1916    1.7377 C.2       1 <0>         0.1755
     34 C22        -6.2909   -1.7249   -1.9182 C.ar      1 <0>        -0.0611
     35 C23         3.2991   -2.5009    0.3314 C.3       1 <0>         0.1536
     36 C24        -6.9087   -2.0016   -0.6987 C.ar      1 <0>        -0.0611
     37 C25         0.1900    5.4099   -2.9229 C.3       1 <0>        -0.0306
     38 C26         4.6405   -2.7550   -0.2560 C.2       1 <0>         0.1871
     39 C27         4.9949   -3.2853   -1.4070 C.2       1 <0>         0.1506
     40 C28        -2.6616   -1.0837    3.2145 C.2       1 <0>         0.4607
     41 C29         4.1822   -3.8184   -2.5267 C.3       1 <0>        -0.0027
     42 C30         6.7779   -2.7643   -0.3454 C.2       1 <0>         0.5207
     43 H1          1.8839    0.0029   -0.8726 H         1 <0>         0.0543
     44 H2          1.3249    1.2181   -1.9846 H         1 <0>         0.0543
     45 H3          0.2672   -1.7890   -1.0438 H         1 <0>         0.0621
     46 H4         -1.1810    2.2854   -0.8273 H         1 <0>         0.0621
     47 H5          2.3755    4.1528    3.5408 H         1 <0>         0.0639
     48 H6          2.8247   -0.1023    3.9678 H         1 <0>         0.0626
     49 H7         -2.0440   -2.5958   -0.9293 H         1 <0>         0.0624
     50 H8         -3.4531    1.4793   -0.7136 H         1 <0>         0.0624
     51 H9          2.9660    2.1639    4.9075 H         1 <0>         0.0618
     52 H10        -0.0815    5.4559   -0.7919 H         1 <0>         0.0695
     53 H11         1.6183    5.5837   -1.3277 H         1 <0>         0.0695
     54 H12        -4.5082   -1.0580   -2.9055 H         1 <0>         0.0624
     55 H13        -6.7116   -2.0555    1.4287 H         1 <0>         0.0625
     56 H14        -6.8359   -1.8656   -2.8471 H         1 <0>         0.0618
     57 H15         2.5155   -2.5898   -0.4273 H         1 <0>         0.0781
     58 H16         3.1112   -3.2361    1.1224 H         1 <0>         0.0781
     59 H17        -7.9339   -2.3595   -0.6785 H         1 <0>         0.0618
     60 H18         0.9103    5.0397   -3.6599 H         1 <0>         0.0262
     61 H19        -0.7631    4.9135   -3.1330 H         1 <0>         0.0262
     62 H20         0.0653    6.4875   -3.0611 H         1 <0>         0.0262
     63 H21        -5.7890   -0.6616    3.0969 H         1 <0>         0.2092
     64 H22         4.4372   -4.8663   -2.7140 H         1 <0>         0.0309
     65 H23         3.1094   -3.7675   -2.3206 H         1 <0>         0.0309
     66 H24         4.3770   -3.2488   -3.4409 H         1 <0>         0.0309
@<TRIPOS>BOND
     1    1   17 1
     2    1   30 1
     3    2   28 1
     4    2   35 1
     5    3   28 2
     6    4   38 1
     7    4   42 1
     8    5   11 1
     9    5   40 1
    10    6   39 1
    11    6   42 1
    12    7   40 2
    13    8   42 2
    14    9   13 1
    15    9   14 1
    16    9   17 1
    17   10   15 1
    18   10   17 2
    19   11   33 1
    20   11   63 1
    21   12   33 2
    22   12   40 1
    23   13   15 ar
    24   13   18 ar
    25   14   16 1
    26   14   43 1
    27   14   44 1
    28   15   21 ar
    29   16   19 ar
    30   16   20 ar
    31   18   23 ar
    32   18   28 1
    33   19   24 ar
    34   19   45 1
    35   20   25 ar
    36   20   46 1
    37   21   26 ar
    38   21   47 1
    39   22   24 ar
    40   22   25 ar
    41   22   27 1
    42   23   26 ar
    43   23   48 1
    44   24   49 1
    45   25   50 1
    46   26   51 1
    47   27   29 ar
    48   27   31 ar
    49   29   32 ar
    50   29   33 1
    51   30   37 1
    52   30   52 1
    53   30   53 1
    54   31   34 ar
    55   31   54 1
    56   32   36 ar
    57   32   55 1
    58   34   36 ar
    59   34   56 1
    60   35   38 1
    61   35   57 1
    62   35   58 1
    63   36   59 1
    64   37   60 1
    65   37   61 1
    66   37   62 1
    67   38   39 2
    68   39   41 1
    69   41   64 1
    70   41   65 1
    71   41   66 1
