@<TRIPOS>MOLECULE
DB08936
   42    44     0     0     0
SMALL
USER_CHARGES

@<TRIPOS>ATOM
      1 Cl1         3.5792   -4.9813   -1.0339 Cl        1 <0>        -0.0835
      2 N1         -0.6952    0.0595    0.0497 N.3       1 <0>        -0.2891
      3 N2         -3.5771    0.0088    0.2751 N.3       1 <0>        -0.3029
      4 C1         -1.4364    1.1976    0.6066 C.3       1 <0>         0.0126
      5 C2         -1.4181   -1.1936    0.2991 C.3       1 <0>         0.0126
      6 C3          0.6557   -0.0015    0.6039 C.3       1 <0>         0.0610
      7 C4         -2.8535    1.2617    0.0266 C.3       1 <0>         0.0115
      8 C5         -2.8357   -1.1303   -0.2798 C.3       1 <0>         0.0115
      9 C6          1.3961   -1.2642    0.1882 C.ar      1 <0>        -0.0258
     10 C7          1.4630    1.2530    0.3040 C.ar      1 <0>        -0.0259
     11 C8         -4.9274    0.0700   -0.2810 C.3       1 <0>        -0.0127
     12 C9          1.2957   -2.3886    0.9819 C.ar      1 <0>        -0.0554
     13 C10         2.1467   -1.2472   -0.9698 C.ar      1 <0>        -0.0554
     14 C11         2.4356    1.6504    1.1988 C.ar      1 <0>        -0.0568
     15 C12         1.1987    1.9559   -0.8540 C.ar      1 <0>        -0.0568
     16 C13         1.9752   -3.5458    0.6015 C.ar      1 <0>        -0.0431
     17 C14         2.8263   -2.4043   -1.3504 C.ar      1 <0>        -0.0431
     18 C15         3.1757    2.8003    0.9240 C.ar      1 <0>        -0.0614
     19 C16         1.9389    3.1057   -1.1287 C.ar      1 <0>        -0.0614
     20 C17         2.7406   -3.5537   -0.5647 C.ar      1 <0>         0.0410
     21 C18         2.9276    3.5279   -0.2397 C.ar      1 <0>        -0.0617
     22 H1         -0.9749    2.1666    0.3986 H         1 <0>         0.0439
     23 H2         -1.5028    1.1145    1.7009 H         1 <0>         0.0439
     24 H3         -1.4760   -1.4184    1.3725 H         1 <0>         0.0439
     25 H4         -0.9534   -2.0413   -0.2136 H         1 <0>         0.0439
     26 H5          0.5624   -0.0380    1.7018 H         1 <0>         0.0562
     27 H6         -3.3846    2.0942    0.5043 H         1 <0>         0.0439
     28 H7         -2.8028    1.4800   -1.0489 H         1 <0>         0.0439
     29 H8         -2.7852   -1.0668   -1.3756 H         1 <0>         0.0439
     30 H9         -3.3533   -2.0649   -0.0308 H         1 <0>         0.0439
     31 H10        -5.4785   -0.8493   -0.0539 H         1 <0>         0.0391
     32 H11        -4.9225    0.2095   -1.3681 H         1 <0>         0.0391
     33 H12        -5.4916    0.8940    0.1697 H         1 <0>         0.0391
     34 H13         0.7160   -2.3938    1.8999 H         1 <0>         0.0621
     35 H14         2.2222   -0.3860   -1.6226 H         1 <0>         0.0621
     36 H15         2.6373    1.0896    2.1065 H         1 <0>         0.0621
     37 H16         0.4576    1.6411   -1.5823 H         1 <0>         0.0621
     38 H17         1.9018   -4.4331    1.2251 H         1 <0>         0.0632
     39 H18         3.4148   -2.3980   -2.2643 H         1 <0>         0.0632
     40 H19         3.9461    3.1286    1.6157 H         1 <0>         0.0618
     41 H20         1.7507    3.6689   -2.0381 H         1 <0>         0.0618
     42 H21         3.5051    4.4222   -0.4546 H         1 <0>         0.0618
@<TRIPOS>BOND
     1    1   20 1
     2    2    4 1
     3    2    5 1
     4    2    6 1
     5    3    7 1
     6    3    8 1
     7    3   11 1
     8    4    7 1
     9    4   22 1
    10    4   23 1
    11    5    8 1
    12    5   24 1
    13    5   25 1
    14    6    9 1
    15    6   10 1
    16    6   26 1
    17    7   27 1
    18    7   28 1
    19    8   29 1
    20    8   30 1
    21    9   12 ar
    22    9   13 ar
    23   10   14 ar
    24   10   15 ar
    25   11   31 1
    26   11   32 1
    27   11   33 1
    28   12   16 ar
    29   12   34 1
    30   13   17 ar
    31   13   35 1
    32   14   18 ar
    33   14   36 1
    34   15   19 ar
    35   15   37 1
    36   16   20 ar
    37   16   38 1
    38   17   20 ar
    39   17   39 1
    40   18   21 ar
    41   18   40 1
    42   19   21 ar
    43   19   41 1
    44   21   42 1
