@<TRIPOS>MOLECULE
DB08827
   87    92     0     0     0
SMALL
USER_CHARGES

@<TRIPOS>ATOM
      1 F1          8.0494   -2.8393    3.4608 F         1 <0>        -0.1690
      2 F2          6.2550   -1.6564    3.8287 F         1 <0>        -0.1690
      3 F3          6.1393   -3.4774    2.6252 F         1 <0>        -0.1690
      4 F4         -0.8260   -3.4835   -2.3922 F         1 <0>        -0.1659
      5 F5         -2.0735   -3.1988   -4.1435 F         1 <0>        -0.1659
      6 F6         -0.9639   -1.5206   -3.3181 F         1 <0>        -0.1659
      7 O1          5.8292    0.9165    2.1731 O.2       1 <0>        -0.2745
      8 O2         -5.9907    2.1016   -0.2907 O.2       1 <0>        -0.2702
      9 N1         -0.4449    2.8574   -0.2227 N.3       1 <0>        -0.3022
     10 N2         -4.1711    1.0822    0.7225 N.am      1 <0>        -0.3084
     11 N3          5.9790   -1.1119    1.0407 N.am      1 <0>        -0.3057
     12 C1          4.1631    0.3747    0.5461 C.3       1 <0>         0.0977
     13 C2          3.6206    1.7730    0.8447 C.3       1 <0>        -0.0308
     14 C3          2.3956    2.0827   -0.0096 C.3       1 <0>        -0.0503
     15 C4          3.1092   -0.7031    0.7928 C.ar      1 <0>        -0.0204
     16 C5          4.4480    0.1832   -0.9419 C.ar      1 <0>        -0.0204
     17 C6         -3.2031    2.0975    0.3897 C.3       1 <0>         0.0257
     18 C7          1.8742    3.4942    0.2692 C.3       1 <0>        -0.0402
     19 C8          0.6261    3.7955   -0.5587 C.3       1 <0>        -0.0011
     20 C9         -1.0382    3.1993    1.0775 C.3       1 <0>         0.0006
     21 C10        -1.4627    2.8386   -1.2824 C.3       1 <0>         0.0006
     22 C11        -2.1254    2.1969    1.4688 C.3       1 <0>        -0.0216
     23 C12        -2.5636    1.8230   -0.9716 C.3       1 <0>        -0.0216
     24 C13         2.8301   -1.4016   -0.4040 C.ar      1 <0>        -0.0131
     25 C14         3.6496   -0.8590   -1.4659 C.ar      1 <0>        -0.0131
     26 C15         5.4025    0.1071    1.3538 C.2       1 <0>         0.2282
     27 C16         2.4622   -1.0228    1.9772 C.ar      1 <0>        -0.0567
     28 C17         5.3366    0.8793   -1.7476 C.ar      1 <0>        -0.0567
     29 C18         1.8984   -2.4273   -0.4215 C.ar      1 <0>        -0.0537
     30 C19         3.7364   -1.2107   -2.8036 C.ar      1 <0>        -0.0537
     31 C20         1.5238   -2.0563    1.9585 C.ar      1 <0>        -0.0614
     32 C21         5.4235    0.5243   -3.0949 C.ar      1 <0>        -0.0614
     33 C22         1.2446   -2.7516    0.7707 C.ar      1 <0>        -0.0612
     34 C23         4.6310   -0.5104   -3.6178 C.ar      1 <0>        -0.0612
     35 C24         7.1919   -1.5950    1.6602 C.3       1 <0>         0.1069
     36 C25        -5.5026    1.1730    0.3478 C.2       1 <0>         0.2449
     37 C26        -6.3783    0.0576    0.7909 C.ar      1 <0>         0.0444
     38 C27         6.9005   -2.3976    2.9030 C.3       1 <0>         0.4050
     39 C28        -6.1380   -1.2618    0.4072 C.ar      1 <0>        -0.0058
     40 C29        -7.4644    0.3580    1.6128 C.ar      1 <0>        -0.0490
     41 C30        -5.0172   -1.6040   -0.4465 C.ar      1 <0>        -0.0171
     42 C31        -6.9838   -2.2806    0.8455 C.ar      1 <0>        -0.0533
     43 C32        -8.3102   -0.6608    2.0512 C.ar      1 <0>        -0.0610
     44 C33        -8.0700   -1.9801    1.6676 C.ar      1 <0>        -0.0611
     45 C34        -4.0376   -2.4866    0.0086 C.ar      1 <0>        -0.0535
     46 C35        -4.9181   -1.0499   -1.7228 C.ar      1 <0>        -0.0535
     47 C36        -2.9587   -2.8150   -0.8124 C.ar      1 <0>        -0.0495
     48 C37        -3.8393   -1.3782   -2.5438 C.ar      1 <0>        -0.0495
     49 C38        -2.8598   -2.2607   -2.0886 C.ar      1 <0>         0.0548
     50 C39        -1.7062   -2.6108   -2.9665 C.3       1 <0>         0.4174
     51 H1          4.3912    2.5315    0.6511 H         1 <0>         0.0282
     52 H2          3.3557    1.8670    1.9066 H         1 <0>         0.0282
     53 H3          1.6016    1.3595    0.2016 H         1 <0>         0.0266
     54 H4          2.6238    2.0160   -1.0788 H         1 <0>         0.0266
     55 H5         -3.7282    3.0603    0.3361 H         1 <0>         0.0499
     56 H6          2.6507    4.2198   -0.0054 H         1 <0>         0.0278
     57 H7          1.6985    3.6351    1.3406 H         1 <0>         0.0278
     58 H8          0.3139    4.8373   -0.4123 H         1 <0>         0.0426
     59 H9          0.8997    3.6976   -1.6176 H         1 <0>         0.0426
     60 H10        -1.4648    4.2110    1.0594 H         1 <0>         0.0427
     61 H11        -0.2886    3.1786    1.8744 H         1 <0>         0.0427
     62 H12        -1.9051    3.8345   -1.4172 H         1 <0>         0.0427
     63 H13        -1.0025    2.5538   -2.2366 H         1 <0>         0.0427
     64 H14        -1.6691    1.2117    1.6373 H         1 <0>         0.0295
     65 H15        -2.5771    2.4961    2.4226 H         1 <0>         0.0295
     66 H16        -3.3237    1.8547   -1.7614 H         1 <0>         0.0295
     67 H17        -2.1381    0.8108   -0.9868 H         1 <0>         0.0295
     68 H18         2.6744   -0.4892    2.8972 H         1 <0>         0.0621
     69 H19         5.9509    1.6792   -1.3488 H         1 <0>         0.0621
     70 H20        -3.8531    0.2683    1.2410 H         1 <0>         0.1493
     71 H21         1.6723   -2.9742   -1.3307 H         1 <0>         0.0624
     72 H22         3.1314   -2.0079   -3.2222 H         1 <0>         0.0624
     73 H23         5.5422   -1.7303    0.3656 H         1 <0>         0.1490
     74 H24         1.0021   -2.3266    2.8726 H         1 <0>         0.0618
     75 H25         6.1118    1.0540   -3.7479 H         1 <0>         0.0618
     76 H26         0.5092   -3.5518    0.7793 H         1 <0>         0.0618
     77 H27         4.7156   -0.7693   -4.6699 H         1 <0>         0.0618
     78 H28         7.7108   -2.2141    0.9221 H         1 <0>         0.0550
     79 H29         7.8337   -0.7426    1.9052 H         1 <0>         0.0550
     80 H30        -7.6625    1.3813    1.9214 H         1 <0>         0.0625
     81 H31        -6.8206   -3.3156    0.5540 H         1 <0>         0.0624
     82 H32        -9.1558   -0.4270    2.6914 H         1 <0>         0.0618
     83 H33        -8.7296   -2.7730    2.0079 H         1 <0>         0.0618
     84 H34        -4.0913   -2.9236    1.0030 H         1 <0>         0.0624
     85 H35        -5.6766   -0.3717   -2.1061 H         1 <0>         0.0624
     86 H36        -2.2041   -3.5019   -0.4394 H         1 <0>         0.0623
     87 H37        -3.7715   -0.9429   -3.5373 H         1 <0>         0.0623
@<TRIPOS>BOND
     1    1   38 1
     2    2   38 1
     3    3   38 1
     4    4   50 1
     5    5   50 1
     6    6   50 1
     7    7   26 2
     8    8   36 2
     9    9   19 1
    10    9   20 1
    11    9   21 1
    12   10   17 1
    13   10   36 am
    14   10   70 1
    15   11   26 am
    16   11   35 1
    17   11   73 1
    18   12   13 1
    19   12   15 1
    20   12   16 1
    21   12   26 1
    22   13   14 1
    23   13   51 1
    24   13   52 1
    25   14   18 1
    26   14   53 1
    27   14   54 1
    28   15   24 ar
    29   15   27 ar
    30   16   25 ar
    31   16   28 ar
    32   17   22 1
    33   17   23 1
    34   17   55 1
    35   18   19 1
    36   18   56 1
    37   18   57 1
    38   19   58 1
    39   19   59 1
    40   20   22 1
    41   20   60 1
    42   20   61 1
    43   21   23 1
    44   21   62 1
    45   21   63 1
    46   22   64 1
    47   22   65 1
    48   23   66 1
    49   23   67 1
    50   24   25 1
    51   24   29 ar
    52   25   30 ar
    53   27   31 ar
    54   27   68 1
    55   28   32 ar
    56   28   69 1
    57   29   33 ar
    58   29   71 1
    59   30   34 ar
    60   30   72 1
    61   31   33 ar
    62   31   74 1
    63   32   34 ar
    64   32   75 1
    65   33   76 1
    66   34   77 1
    67   35   38 1
    68   35   78 1
    69   35   79 1
    70   36   37 1
    71   37   39 ar
    72   37   40 ar
    73   39   41 1
    74   39   42 ar
    75   40   43 ar
    76   40   80 1
    77   41   45 ar
    78   41   46 ar
    79   42   44 ar
    80   42   81 1
    81   43   44 ar
    82   43   82 1
    83   44   83 1
    84   45   47 ar
    85   45   84 1
    86   46   48 ar
    87   46   85 1
    88   47   49 ar
    89   47   86 1
    90   48   49 ar
    91   48   87 1
    92   49   50 1
