@<TRIPOS>MOLECULE
DB08880
   28    28     0     0     0
SMALL
USER_CHARGES

@<TRIPOS>ATOM
      1 F1         -5.5359    1.4542   -0.2772 F         1 <0>        -0.1659
      2 F2         -5.8447   -0.6667   -0.6438 F         1 <0>        -0.1659
      3 F3         -5.6582    0.0635    1.3898 F         1 <0>        -0.1659
      4 O1          1.2537    1.5768   -0.9058 O.2       1 <0>        -0.2690
      5 O2          3.4060    1.5896    1.0872 O.3       1 <0>        -0.5099
      6 N1          0.5013   -0.5043   -0.1289 N.am      1 <0>        -0.2808
      7 N2          3.4474   -2.2006   -1.8966 N.1       1 <0>        -0.1906
      8 C1         -0.9024   -0.3257   -0.0635 C.ar      1 <0>         0.0337
      9 C2         -3.6670    0.0248    0.0650 C.ar      1 <0>         0.0549
     10 C3         -1.4700    0.8895   -0.4473 C.ar      1 <0>        -0.0399
     11 C4         -1.7171   -1.3656    0.3845 C.ar      1 <0>        -0.0399
     12 C5         -2.8523    1.0647   -0.3829 C.ar      1 <0>        -0.0484
     13 C6         -3.0994   -1.1902    0.4487 C.ar      1 <0>        -0.0484
     14 C7         -5.1452    0.2124    0.1329 C.3       1 <0>         0.4174
     15 C8          1.4524    0.4258   -0.5302 C.2       1 <0>         0.2618
     16 C9          2.8538   -0.1248   -0.4690 C.2       1 <0>         0.1502
     17 C10         3.7604    0.4930    0.3162 C.2       1 <0>         0.1133
     18 C11         5.1990    0.0822    0.4731 C.3       1 <0>        -0.0057
     19 C12         3.1871   -1.2699   -1.2540 C.1       1 <0>         0.1077
     20 H1         -0.9077    1.7392   -0.8072 H         1 <0>         0.0636
     21 H2         -1.2877   -2.3174    0.6864 H         1 <0>         0.0636
     22 H3         -3.2758    2.0180   -0.6869 H         1 <0>         0.0624
     23 H4         -3.7263   -2.0060    0.7990 H         1 <0>         0.0624
     24 H5          0.8300   -1.4210    0.1672 H         1 <0>         0.1552
     25 H6          5.8540    0.9092    0.1793 H         1 <0>         0.0308
     26 H7          5.4759   -0.7882   -0.1271 H         1 <0>         0.0308
     27 H8          5.4032   -0.1591    1.5215 H         1 <0>         0.0308
     28 H9          2.4655    1.7962    0.9695 H         1 <0>         0.2917
@<TRIPOS>BOND
     1    1   14 1
     2    2   14 1
     3    3   14 1
     4    4   15 2
     5    5   17 1
     6    5   28 1
     7    6    8 1
     8    6   15 am
     9    6   24 1
    10    7   19 3
    11    8   10 ar
    12    8   11 ar
    13    9   12 ar
    14    9   13 ar
    15    9   14 1
    16   10   12 ar
    17   10   20 1
    18   11   13 ar
    19   11   21 1
    20   12   22 1
    21   13   23 1
    22   15   16 1
    23   16   17 2
    24   16   19 1
    25   17   18 1
    26   18   25 1
    27   18   26 1
    28   18   27 1
