@<TRIPOS>MOLECULE
DB08918
   40    41     0     0     0
SMALL
USER_CHARGES

@<TRIPOS>ATOM
      1 O1         -0.9641   -0.7405   -1.7523 O.2       1 <0>        -0.2746
      2 N1         -1.1998    1.1483   -0.4094 N.am      1 <0>        -0.3013
      3 N2         -1.2261   -3.9155   -0.5118 N.3       1 <0>        -0.3297
      4 C1          0.1967   -0.7737    0.2756 C.3       1 <0>         0.0763
      5 C2         -0.2372   -2.1081    0.7902 C.3       1 <0>        -0.0094
      6 C3         -0.3265   -0.8957    1.6701 C.3       1 <0>        -0.0294
      7 C4         -1.4937   -2.7372    0.3087 C.3       1 <0>        -0.0028
      8 C5          1.6363   -0.4771    0.0789 C.ar      1 <0>        -0.0321
      9 C6         -0.7077   -0.1236   -0.7215 C.2       1 <0>         0.2264
     10 C7          2.2715   -0.8290   -1.1163 C.ar      1 <0>        -0.0576
     11 C8          2.3700    0.1544    1.0884 C.ar      1 <0>        -0.0576
     12 C9         -2.4931    1.6191   -0.8863 C.3       1 <0>         0.0118
     13 C10        -0.4509    2.0913    0.4159 C.3       1 <0>         0.0118
     14 C11         3.6262   -0.5522   -1.3004 C.ar      1 <0>        -0.0615
     15 C12         3.7248    0.4311    0.9042 C.ar      1 <0>        -0.0615
     16 C13         4.3527    0.0778   -0.2902 C.ar      1 <0>        -0.0617
     17 C14        -3.5839    1.2794    0.0767 C.3       1 <0>        -0.0493
     18 C15         0.4363    2.9577   -0.4180 C.3       1 <0>        -0.0493
     19 H1          0.5148   -2.8385    1.0723 H         1 <0>         0.0327
     20 H2         -1.3155   -0.5130    1.9030 H         1 <0>         0.0282
     21 H3          0.3192   -0.9073    2.5403 H         1 <0>         0.0282
     22 H4         -2.1916   -2.0698   -0.2022 H         1 <0>         0.0425
     23 H5         -2.0378   -3.0912    1.1932 H         1 <0>         0.0425
     24 H6          1.7242   -1.3286   -1.9114 H         1 <0>         0.0621
     25 H7          1.9233    0.4565    2.0301 H         1 <0>         0.0621
     26 H8         -0.7805   -3.6262   -1.3819 H         1 <0>         0.1182
     27 H9         -2.1099   -4.3481   -0.7779 H         1 <0>         0.1182
     28 H10        -2.4475    2.6974   -1.0726 H         1 <0>         0.0462
     29 H11        -2.7042    1.1318   -1.8449 H         1 <0>         0.0462
     30 H12        -1.1661    2.7151    0.9656 H         1 <0>         0.0462
     31 H13         0.1336    1.5877    1.1797 H         1 <0>         0.0462
     32 H14         4.1158   -0.8290   -2.2296 H         1 <0>         0.0618
     33 H15         4.2907    0.9238    1.6894 H         1 <0>         0.0618
     34 H16         5.4075    0.2935   -0.4337 H         1 <0>         0.0618
     35 H17        -3.6485    0.1983    0.2414 H         1 <0>         0.0245
     36 H18        -3.4214    1.7495    1.0523 H         1 <0>         0.0245
     37 H19        -4.5525    1.6198   -0.3026 H         1 <0>         0.0245
     38 H20         1.1564    2.3670   -0.9928 H         1 <0>         0.0245
     39 H21        -0.1407    3.5524   -1.1340 H         1 <0>         0.0245
     40 H22         0.9992    3.6524    0.2137 H         1 <0>         0.0245
@<TRIPOS>BOND
     1    1    9 2
     2    2    9 am
     3    2   12 1
     4    2   13 1
     5    3    7 1
     6    3   26 1
     7    3   27 1
     8    4    5 1
     9    4    6 1
    10    4    8 1
    11    4    9 1
    12    5    6 1
    13    5    7 1
    14    5   19 1
    15    6   20 1
    16    6   21 1
    17    7   22 1
    18    7   23 1
    19    8   10 ar
    20    8   11 ar
    21   10   14 ar
    22   10   24 1
    23   11   15 ar
    24   11   25 1
    25   12   17 1
    26   12   28 1
    27   12   29 1
    28   13   18 1
    29   13   30 1
    30   13   31 1
    31   14   16 ar
    32   14   32 1
    33   15   16 ar
    34   15   33 1
    35   16   34 1
    36   17   35 1
    37   17   36 1
    38   17   37 1
    39   18   38 1
    40   18   39 1
    41   18   40 1
