@<TRIPOS>MOLECULE
DB08824
   46    48     0     0     0
SMALL
USER_CHARGES

@<TRIPOS>ATOM
      1 I1          7.3136   -1.0983    0.0329 I         1 <0>        -0.0438
      2 F1         -5.3708   -1.4298   -0.9745 F         1 <0>        -0.2490
      3 O1          0.0964   -1.7209   -0.0048 O.3       1 <0>        -0.4677
      4 O2          0.9599   -1.7279    2.1379 O.2       1 <0>        -0.2505
      5 N1         -1.5494    0.2208   -0.4297 N.3       1 <0>        -0.2956
      6 C1         -1.1085    0.7101    0.8916 C.3       1 <0>         0.0242
      7 C2         -0.9648    1.2070   -1.3541 C.3       1 <0>         0.0113
      8 C3          0.3932    0.3523    1.0511 C.3       1 <0>         0.0787
      9 C4          1.2651    0.9451   -0.0907 C.3       1 <0>        -0.0001
     10 C5         -1.3185    2.2281    0.8152 C.3       1 <0>        -0.0351
     11 C6          0.5378    0.8610   -1.4575 C.3       1 <0>        -0.0297
     12 C7         -1.2107    2.5587   -0.6759 C.3       1 <0>        -0.0359
     13 C8         -3.0020    0.1232   -0.5455 C.3       1 <0>         0.0018
     14 C9          2.7066    0.4579   -0.0606 C.ar      1 <0>        -0.0433
     15 C10         0.5271   -1.1444    1.1534 C.2       1 <0>         0.3120
     16 C11        -3.5404   -0.9379    0.4127 C.3       1 <0>        -0.0118
     17 C12         3.6113    1.0219    0.8359 C.ar      1 <0>        -0.0573
     18 C13         3.1159   -0.5503   -0.9305 C.ar      1 <0>        -0.0573
     19 C14        -5.0494   -1.0753    0.2978 C.3       1 <0>         0.0913
     20 C15         4.9324    0.5751    0.8628 C.ar      1 <0>        -0.0483
     21 C16         4.4371   -0.9969   -0.9035 C.ar      1 <0>        -0.0483
     22 C17         5.3453   -0.4342   -0.0070 C.ar      1 <0>         0.0134
     23 C18         0.1694   -3.1496   -0.0447 C.3       1 <0>         0.0817
     24 H1         -1.6383    0.2874    1.7482 H         1 <0>         0.0471
     25 H2         -1.4058    1.1657   -2.3565 H         1 <0>         0.0463
     26 H3          0.7496    0.7613    2.0071 H         1 <0>         0.0435
     27 H4          1.3427    2.0242    0.1117 H         1 <0>         0.0358
     28 H5         -0.5901    2.7888    1.4100 H         1 <0>         0.0281
     29 H6         -2.3170    2.4993    1.1782 H         1 <0>         0.0281
     30 H7          1.0217    1.5517   -2.1606 H         1 <0>         0.0286
     31 H8          0.6153   -0.1318   -1.9120 H         1 <0>         0.0286
     32 H9         -2.1545    2.9980   -1.0203 H         1 <0>         0.0281
     33 H10        -0.4181    3.2860   -0.8788 H         1 <0>         0.0281
     34 H11        -3.5087    1.0777   -0.3604 H         1 <0>         0.0427
     35 H12        -3.2551   -0.1750   -1.5708 H         1 <0>         0.0427
     36 H13        -3.3253   -0.7116    1.4595 H         1 <0>         0.0302
     37 H14        -3.0784   -1.9048    0.1786 H         1 <0>         0.0302
     38 H15         3.3013    1.8074    1.5198 H         1 <0>         0.0621
     39 H16         2.4422   -1.0285   -1.6316 H         1 <0>         0.0621
     40 H17        -5.5597   -0.1353    0.5284 H         1 <0>         0.0615
     41 H18        -5.4233   -1.8540    0.9685 H         1 <0>         0.0615
     42 H19         5.6237    1.0270    1.5696 H         1 <0>         0.0628
     43 H20         4.7373   -1.7872   -1.5869 H         1 <0>         0.0628
     44 H21        -0.1954   -3.4804   -1.0207 H         1 <0>         0.0661
     45 H22        -0.4667   -3.5821    0.7333 H         1 <0>         0.0661
     46 H23         1.2059   -3.4795    0.0735 H         1 <0>         0.0661
@<TRIPOS>BOND
     1    1   22 1
     2    2   19 1
     3    3   15 1
     4    3   23 1
     5    4   15 2
     6    5    6 1
     7    5    7 1
     8    5   13 1
     9    6    8 1
    10    6   10 1
    11    6   24 1
    12    7   11 1
    13    7   12 1
    14    7   25 1
    15    8    9 1
    16    8   15 1
    17    8   26 1
    18    9   11 1
    19    9   14 1
    20    9   27 1
    21   10   12 1
    22   10   28 1
    23   10   29 1
    24   11   30 1
    25   11   31 1
    26   12   32 1
    27   12   33 1
    28   13   16 1
    29   13   34 1
    30   13   35 1
    31   14   17 ar
    32   14   18 ar
    33   16   19 1
    34   16   36 1
    35   16   37 1
    36   17   20 ar
    37   17   38 1
    38   18   21 ar
    39   18   39 1
    40   19   40 1
    41   19   41 1
    42   20   22 ar
    43   20   42 1
    44   21   22 ar
    45   21   43 1
    46   23   44 1
    47   23   45 1
    48   23   46 1
