@<TRIPOS>MOLECULE
DB08842
   31    30     0     0     0
SMALL
USER_CHARGES

@<TRIPOS>ATOM
      1 O1         -1.0860   -0.4615   -0.0567 O.3       1 <0>        -0.4558
      2 O2         -2.2682    3.5297   -1.0143 O.co2     1 <0>        -0.5497
      3 O3         -1.9905    1.4160   -1.8310 O.co2     1 <0>        -0.5497
      4 O4         -2.8457   -0.4892    1.4399 O.2       1 <0>        -0.2512
      5 N1          1.7210   -0.1305   -0.0441 N.4       1 <0>         0.2395
      6 C1          0.7624    1.0499   -0.1101 C.3       1 <0>         0.0075
      7 C2         -0.5673    0.7154    0.5636 C.3       1 <0>         0.1474
      8 C3          1.9718   -0.4996    1.4109 C.3       1 <0>        -0.0417
      9 C4          1.1111   -1.3202   -0.7714 C.3       1 <0>        -0.0417
     10 C5          3.0383    0.2480   -0.7057 C.3       1 <0>        -0.0417
     11 C6         -1.5990    1.8419    0.4831 C.3       1 <0>         0.0291
     12 C7         -1.9884    2.2985   -0.9301 C.2       1 <0>         0.0454
     13 C8         -2.2355   -0.9565    0.4878 C.2       1 <0>         0.3044
     14 C9         -2.6602   -2.1836   -0.2605 C.3       1 <0>         0.0332
     15 H1          0.6339    1.2839   -1.1730 H         1 <0>         0.0852
     16 H2          1.2466    1.9035    0.3791 H         1 <0>         0.0852
     17 H3         -0.4058    0.5135    1.6287 H         1 <0>         0.0792
     18 H4          1.0774   -0.9477    1.8500 H         1 <0>         0.0778
     19 H5          2.7811   -1.2365    1.4364 H         1 <0>         0.0778
     20 H6          2.2711    0.4015    1.9542 H         1 <0>         0.0778
     21 H7          1.9403   -1.9623   -1.0929 H         1 <0>         0.0778
     22 H8          0.5154   -1.9344   -0.0923 H         1 <0>         0.0778
     23 H9          0.5859   -0.9841   -1.6707 H         1 <0>         0.0778
     24 H10         2.8404    0.4894   -1.7543 H         1 <0>         0.0778
     25 H11         3.4501    1.1163   -0.1828 H         1 <0>         0.0778
     26 H12         3.7263   -0.5995   -0.6315 H         1 <0>         0.0778
     27 H13        -2.5348    1.6395    1.0070 H         1 <0>         0.0363
     28 H14        -1.1682    2.7127    0.9976 H         1 <0>         0.0363
     29 H15        -1.9192   -2.9752   -0.1254 H         1 <0>         0.0342
     30 H16        -2.7832   -1.9477   -1.3207 H         1 <0>         0.0342
     31 H17        -3.6212   -2.5312    0.1293 H         1 <0>         0.0342
@<TRIPOS>BOND
     1    1    7 1
     2    1   13 1
     3    2   12 2
     4    3   12 1
     5    4   13 2
     6    5    6 1
     7    5    8 1
     8    5    9 1
     9    5   10 1
    10    6    7 1
    11    6   15 1
    12    6   16 1
    13    7   11 1
    14    7   17 1
    15    8   18 1
    16    8   19 1
    17    8   20 1
    18    9   21 1
    19    9   22 1
    20    9   23 1
    21   10   24 1
    22   10   25 1
    23   10   26 1
    24   11   12 1
    25   11   27 1
    26   11   28 1
    27   13   14 1
    28   14   29 1
    29   14   30 1
    30   14   31 1
