@<TRIPOS>MOLECULE
DB08887
   58    57     0     0     0
SMALL
USER_CHARGES

@<TRIPOS>ATOM
      1 O1         -1.9813    3.1821   -0.0146 O.3       1 <0>        -0.4649
      2 O2         -1.1519    1.8570   -1.7114 O.2       1 <0>        -0.2509
      3 C1          1.5125    2.3546   -0.9263 C.3       1 <0>        -0.0395
      4 C2          2.8569    2.8081   -0.3559 C.3       1 <0>        -0.0343
      5 C3          0.3482    2.9973   -0.1737 C.3       1 <0>         0.0452
      6 C4          4.0046    2.2093   -1.1142 C.2       1 <0>        -0.0876
      7 C5          4.6014    1.0566   -0.7754 C.2       1 <0>        -0.0842
      8 C6          4.1944    0.2233    0.4046 C.3       1 <0>        -0.0165
      9 C7         -0.9904    2.5934   -0.7480 C.2       1 <0>         0.3071
     10 C8          4.4796   -1.2340    0.1786 C.2       1 <0>        -0.0839
     11 C9          2.0714   -2.0298    0.5218 C.3       1 <0>        -0.0165
     12 C10         3.5413   -2.1930    0.2347 C.2       1 <0>        -0.0839
     13 C11        -0.2502   -0.5268    1.7027 C.3       1 <0>        -0.0165
     14 C12         1.6834   -2.0964    1.9704 C.2       1 <0>        -0.0839
     15 C13         0.6481   -1.4267    2.4996 C.2       1 <0>        -0.0839
     16 C14        -2.4440   -2.4169    0.8853 C.3       1 <0>        -0.0165
     17 C15        -3.3172    2.8908   -0.4377 C.3       1 <0>         0.0896
     18 C16        -1.6376   -0.4909    2.2733 C.2       1 <0>        -0.0839
     19 C17        -2.6163   -1.3335    1.9092 C.2       1 <0>        -0.0839
     20 C18        -3.4459   -2.2923   -0.2253 C.2       1 <0>        -0.0842
     21 C19        -1.6935   -2.1946   -2.0179 C.3       1 <0>        -0.0376
     22 C20        -3.1079   -2.1932   -1.5197 C.2       1 <0>        -0.0879
     23 C21        -4.2903    3.6128    0.4696 C.3       1 <0>        -0.0306
     24 C22        -1.2160   -3.6064   -2.3207 C.3       1 <0>        -0.0618
     25 H1          1.4234    1.2624   -0.8730 H         1 <0>         0.0273
     26 H2          1.4527    2.6189   -1.9903 H         1 <0>         0.0273
     27 H3          2.9169    2.5832    0.7151 H         1 <0>         0.0307
     28 H4          2.9383    3.9002   -0.4288 H         1 <0>         0.0307
     29 H5          0.4264    4.0886   -0.2373 H         1 <0>         0.0378
     30 H6          0.3775    2.7011    0.8801 H         1 <0>         0.0378
     31 H7          4.3648    2.7502   -1.9852 H         1 <0>         0.0569
     32 H8          5.4498    0.7279   -1.3714 H         1 <0>         0.0572
     33 H9          3.1536    0.3901    0.6882 H         1 <0>         0.0350
     34 H10         4.8021    0.5381    1.2627 H         1 <0>         0.0350
     35 H11         5.5089   -1.5244   -0.0189 H         1 <0>         0.0572
     36 H12         1.7221   -1.1133    0.0375 H         1 <0>         0.0350
     37 H13         1.5541   -2.8469    0.0010 H         1 <0>         0.0350
     38 H14         3.8733   -3.2183    0.0776 H         1 <0>         0.0572
     39 H15         0.1509    0.4915    1.7747 H         1 <0>         0.0350
     40 H16        -0.2752   -0.7550    0.6360 H         1 <0>         0.0350
     41 H17         2.2669   -2.7415    2.6229 H         1 <0>         0.0572
     42 H18         0.4687   -1.5222    3.5681 H         1 <0>         0.0572
     43 H19        -2.6604   -3.3659    1.3957 H         1 <0>         0.0350
     44 H20        -1.4177   -2.5338    0.5397 H         1 <0>         0.0350
     45 H21        -3.4901    1.8101   -0.3808 H         1 <0>         0.0694
     46 H22        -3.4546    3.2274   -1.4712 H         1 <0>         0.0694
     47 H23        -1.8462    0.2517    3.0394 H         1 <0>         0.0572
     48 H24        -3.5851   -1.2437    2.3949 H         1 <0>         0.0572
     49 H25        -4.5009   -2.3048    0.0375 H         1 <0>         0.0572
     50 H26        -1.0033   -1.6917   -1.3364 H         1 <0>         0.0305
     51 H27        -1.6620   -1.6035   -2.9418 H         1 <0>         0.0305
     52 H28        -3.8986   -2.1298   -2.2627 H         1 <0>         0.0569
     53 H29        -4.1526    3.2987    1.5096 H         1 <0>         0.0262
     54 H30        -4.1173    4.6936    0.4383 H         1 <0>         0.0262
     55 H31        -5.3237    3.4116    0.1739 H         1 <0>         0.0262
     56 H32        -1.8639   -4.0961   -3.0556 H         1 <0>         0.0233
     57 H33        -0.2014   -3.5801   -2.7312 H         1 <0>         0.0233
     58 H34        -1.1965   -4.2247   -1.4171 H         1 <0>         0.0233
@<TRIPOS>BOND
     1    1    9 1
     2    1   17 1
     3    2    9 2
     4    3    4 1
     5    3    5 1
     6    3   25 1
     7    3   26 1
     8    4    6 1
     9    4   27 1
    10    4   28 1
    11    5    9 1
    12    5   29 1
    13    5   30 1
    14    6    7 2
    15    6   31 1
    16    7    8 1
    17    7   32 1
    18    8   10 1
    19    8   33 1
    20    8   34 1
    21   10   12 2
    22   10   35 1
    23   11   12 1
    24   11   14 1
    25   11   36 1
    26   11   37 1
    27   12   38 1
    28   13   15 1
    29   13   18 1
    30   13   39 1
    31   13   40 1
    32   14   15 2
    33   14   41 1
    34   15   42 1
    35   16   19 1
    36   16   20 1
    37   16   43 1
    38   16   44 1
    39   17   23 1
    40   17   45 1
    41   17   46 1
    42   18   19 2
    43   18   47 1
    44   19   48 1
    45   20   22 2
    46   20   49 1
    47   21   22 1
    48   21   24 1
    49   21   50 1
    50   21   51 1
    51   22   52 1
    52   23   53 1
    53   23   54 1
    54   23   55 1
    55   24   56 1
    56   24   57 1
    57   24   58 1
