@<TRIPOS>MOLECULE
DB08439
   44    46     0     0     0
SMALL
USER_CHARGES

@<TRIPOS>ATOM
      1 S1         -2.7476    2.9177   -0.3561 S.o2      1 <0>         0.0744
      2 O1          4.9683    0.5695    0.2956 O.3       1 <0>        -0.3587
      3 O2         -2.8016    3.6350   -1.6151 O.2       1 <0>        -0.1499
      4 O3         -3.0613    3.5905    0.8896 O.2       1 <0>        -0.1499
      5 O4         -3.9025    0.9842    1.8037 O.2       1 <0>        -0.2743
      6 N1         -3.6823    1.4907   -0.4783 N.am      1 <0>        -0.1855
      7 N2          4.5476   -0.7529    0.2237 N.2       1 <0>        -0.0774
      8 C1          2.7530    0.6362    0.0934 C.2       1 <0>         0.0516
      9 C2          1.4306    1.1856   -0.0146 C.ar      1 <0>        -0.0123
     10 C3         -1.1195    2.2429   -0.2231 C.ar      1 <0>         0.1086
     11 C4          3.2187   -0.6868    0.1031 C.2       1 <0>         0.1213
     12 C5          3.8884    1.3883    0.2169 C.2       1 <0>         0.1425
     13 C6          0.6776    1.4223    1.1354 C.ar      1 <0>        -0.0520
     14 C7          0.8986    1.4820   -1.2696 C.ar      1 <0>        -0.0520
     15 C8         -0.6076    1.9544    1.0301 C.ar      1 <0>        -0.0345
     16 C9         -0.3859    2.0154   -1.3747 C.ar      1 <0>        -0.0345
     17 C10         2.4398   -1.8937    0.0011 C.ar      1 <0>         0.0043
     18 C11         4.1662    2.8307    0.2785 C.3       1 <0>        -0.0031
     19 C12         2.1754   -2.4448   -1.2505 C.ar      1 <0>        -0.0524
     20 C13         1.9536   -2.5050    1.1543 C.ar      1 <0>        -0.0524
     21 C14        -4.1190    0.6974    0.6311 C.2       1 <0>         0.2317
     22 C15        -4.8547   -0.5587    0.2308 C.3       1 <0>         0.0226
     23 C16         1.4203   -3.6136   -1.3496 C.ar      1 <0>        -0.0611
     24 C17         1.1997   -3.6745    1.0554 C.ar      1 <0>        -0.0611
     25 C18         0.9328   -4.2288   -0.1966 C.ar      1 <0>        -0.0617
     26 C19        -3.8926   -1.7263    0.1207 C.3       1 <0>        -0.0569
     27 H1          1.0766    1.1952    2.1213 H         1 <0>         0.0624
     28 H2          1.4716    1.3012   -2.1761 H         1 <0>         0.0624
     29 H3         -1.1798    2.1266    1.9363 H         1 <0>         0.0637
     30 H4         -0.7842    2.2313   -2.3611 H         1 <0>         0.0637
     31 H5         -3.9396    1.1886   -1.4269 H         1 <0>         0.1765
     32 H6          5.2376    3.0295    0.3828 H         1 <0>         0.0309
     33 H7          3.8194    3.3285   -0.6324 H         1 <0>         0.0309
     34 H8          3.6558    3.2846    1.1338 H         1 <0>         0.0309
     35 H9          2.5480   -1.9772   -2.1587 H         1 <0>         0.0624
     36 H10         2.1516   -2.0848    2.1376 H         1 <0>         0.0624
     37 H11        -5.3802   -0.4013   -0.7169 H         1 <0>         0.0356
     38 H12        -5.6147   -0.7667    0.9919 H         1 <0>         0.0356
     39 H13         1.2122   -4.0447   -2.3244 H         1 <0>         0.0618
     40 H14         0.8194   -4.1531    1.9531 H         1 <0>         0.0618
     41 H15         0.3450   -5.1389   -0.2736 H         1 <0>         0.0618
     42 H16        -3.3734   -1.8985    1.0694 H         1 <0>         0.0234
     43 H17        -4.4299   -2.6408   -0.1479 H         1 <0>         0.0234
     44 H18        -3.1314   -1.5374   -0.6437 H         1 <0>         0.0234
@<TRIPOS>BOND
     1    1    3 2
     2    1    4 2
     3    1    6 1
     4    1   10 1
     5    2    7 1
     6    2   12 1
     7    5   21 2
     8    6   21 am
     9    6   31 1
    10    7   11 2
    11    8    9 1
    12    8   11 1
    13    8   12 2
    14    9   13 ar
    15    9   14 ar
    16   10   15 ar
    17   10   16 ar
    18   11   17 1
    19   12   18 1
    20   13   15 ar
    21   13   27 1
    22   14   16 ar
    23   14   28 1
    24   15   29 1
    25   16   30 1
    26   17   19 ar
    27   17   20 ar
    28   18   32 1
    29   18   33 1
    30   18   34 1
    31   19   23 ar
    32   19   35 1
    33   20   24 ar
    34   20   36 1
    35   21   22 1
    36   22   26 1
    37   22   37 1
    38   22   38 1
    39   23   25 ar
    40   23   39 1
    41   24   25 ar
    42   24   40 1
    43   25   41 1
    44   26   42 1
    45   26   43 1
    46   26   44 1
