@<TRIPOS>MOLECULE
DB08942
   36    38     0     0     0
SMALL
USER_CHARGES

@<TRIPOS>ATOM
      1 S1         -1.9865    1.6816   -0.8224 S.o2      1 <0>         0.0754
      2 O1         -2.4700    2.9674   -0.3580 O.2       1 <0>        -0.1498
      3 O2         -1.5887    1.4842   -2.2033 O.2       1 <0>        -0.1498
      4 O3         -1.1268   -2.5179   -0.3587 O.3       1 <0>        -0.5040
      5 O4          1.4041   -1.6492    0.5605 O.2       1 <0>        -0.2682
      6 O5          5.2503    1.2656   -0.7264 O.3       1 <0>        -0.3581
      7 N1         -0.7387    1.1240    0.2339 N.pl3     1 <0>        -0.1975
      8 N2          1.8251    0.4895   -0.3312 N.am      1 <0>        -0.2625
      9 N3          3.9090    1.6109   -0.8396 N.2       1 <0>        -0.0628
     10 C1         -3.2277    0.4824   -0.4936 C.ar      1 <0>         0.1194
     11 C2         -2.8060   -0.8185   -0.1938 C.ar      1 <0>         0.0451
     12 C3         -0.3898   -0.2598    0.0269 C.2       1 <0>         0.1547
     13 C4         -1.3654   -1.1692   -0.1723 C.2       1 <0>         0.1534
     14 C5         -4.5715    0.8516   -0.5181 C.ar      1 <0>        -0.0344
     15 C6         -0.8399    1.5343    1.6648 C.3       1 <0>         0.0239
     16 C7         -3.8004   -1.7709    0.0717 C.ar      1 <0>        -0.0491
     17 C8          1.0413   -0.5619    0.1198 C.2       1 <0>         0.2685
     18 C9         -5.5382   -0.1116   -0.2468 C.ar      1 <0>        -0.0599
     19 C10        -5.1547   -1.4195    0.0464 C.ar      1 <0>        -0.0610
     20 C11         3.2390    0.5475   -0.3861 C.2       1 <0>         0.1682
     21 C12         4.0961   -0.4888    0.0228 C.2       1 <0>         0.0221
     22 C13         5.3488    0.0132   -0.2118 C.2       1 <0>         0.1361
     23 C14         6.7061   -0.5138   -0.0240 C.3       1 <0>        -0.0036
     24 H1         -4.8778    1.8665   -0.7508 H         1 <0>         0.0637
     25 H2         -1.7343    1.1122    2.1323 H         1 <0>         0.0446
     26 H3          0.0403    1.1961    2.2213 H         1 <0>         0.0446
     27 H4         -0.8677    2.6254    1.7372 H         1 <0>         0.0446
     28 H5         -3.5426   -2.7996    0.3133 H         1 <0>         0.0625
     29 H6         -6.5910    0.1544   -0.2642 H         1 <0>         0.0618
     30 H7         -5.9108   -2.1703    0.2584 H         1 <0>         0.0618
     31 H8          1.3697    1.3337   -0.6704 H         1 <0>         0.1567
     32 H9         -0.1674   -2.6706   -0.3427 H         1 <0>         0.2923
     33 H10         3.8692   -1.4625    0.4295 H         1 <0>         0.0687
     34 H11         7.2389   -0.5542   -0.9792 H         1 <0>         0.0309
     35 H12         7.2750    0.1228    0.6606 H         1 <0>         0.0309
     36 H13         6.6832   -1.5251    0.3940 H         1 <0>         0.0309
@<TRIPOS>BOND
     1    1    2 2
     2    1    3 2
     3    1    7 1
     4    1   10 1
     5    4   13 1
     6    4   32 1
     7    5   17 2
     8    6    9 1
     9    6   22 1
    10    7   12 1
    11    7   15 1
    12    8   17 am
    13    8   20 1
    14    8   31 1
    15    9   20 2
    16   10   11 ar
    17   10   14 ar
    18   11   13 1
    19   11   16 ar
    20   12   13 2
    21   12   17 1
    22   14   18 ar
    23   14   24 1
    24   15   25 1
    25   15   26 1
    26   15   27 1
    27   16   19 ar
    28   16   28 1
    29   18   19 ar
    30   18   29 1
    31   19   30 1
    32   20   21 1
    33   21   22 2
    34   21   33 1
    35   22   23 1
    36   23   34 1
    37   23   35 1
    38   23   36 1
