@<TRIPOS>MOLECULE
DB08973
   61    65     0     0     0
SMALL
USER_CHARGES

@<TRIPOS>ATOM
      1 Cl1         1.5989   -0.6542    1.8628 Cl        1 <0>        -0.1151
      2 Cl2         1.3835    3.1817   -0.2817 Cl        1 <0>        -0.1199
      3 F1          3.9043   -2.8174   -1.4091 F         1 <0>        -0.2407
      4 O1         -2.7646   -0.3675    0.8872 O.3       1 <0>        -0.3320
      5 O2         -3.2653   -1.9750   -0.7533 O.3       1 <0>        -0.3426
      6 O3         -4.0913    1.5286   -1.6420 O.2       1 <0>        -0.2918
      7 O4         -5.0756    2.9155    0.4379 O.3       1 <0>        -0.3874
      8 O5          6.4094   -1.2088    2.4970 O.2       1 <0>        -0.2879
      9 C1         -1.0883    0.8091   -0.5142 C.3       1 <0>         0.0112
     10 C2         -0.3139   -0.5170   -0.6806 C.3       1 <0>        -0.0254
     11 C3          1.1995   -0.3245   -0.8837 C.3       1 <0>        -0.0130
     12 C4         -2.5293    0.2459   -0.3779 C.3       1 <0>         0.1639
     13 C5          1.8383    0.4391    0.3476 C.3       1 <0>         0.0770
     14 C6         -2.5927   -0.8966   -1.3978 C.3       1 <0>         0.0987
     15 C7         -1.1314   -1.2782   -1.7276 C.3       1 <0>        -0.0196
     16 C8         -0.5261    1.5303    0.7299 C.3       1 <0>        -0.0262
     17 C9          1.0168    1.7390    0.7134 C.3       1 <0>         0.0550
     18 C10         3.4239    0.5802    0.1665 C.3       1 <0>         0.0310
     19 C11         1.8887   -1.6746   -1.1615 C.3       1 <0>        -0.0130
     20 C12        -1.0252    1.7138   -1.7758 C.3       1 <0>        -0.0561
     21 C13        -3.3865   -1.6295    0.6277 C.3       1 <0>         0.1663
     22 C14         3.4023   -1.5534   -1.2846 C.3       1 <0>         0.1236
     23 C15        -3.6068    1.2779   -0.5395 C.2       1 <0>         0.1931
     24 C16         3.9997   -0.8224   -0.1063 C.2       1 <0>        -0.0212
     25 C17         3.8786    1.4556   -1.0303 C.3       1 <0>        -0.0506
     26 C18         4.0606    1.2165    1.3953 C.2       1 <0>        -0.0687
     27 C19        -4.0545    1.9831    0.7230 C.3       1 <0>         0.1053
     28 C20        -4.8638   -1.5372    0.9910 C.3       1 <0>        -0.0108
     29 C21        -2.7026   -2.7090    1.4622 C.3       1 <0>        -0.0108
     30 C22         4.9564   -1.3861    0.6486 C.2       1 <0>        -0.0121
     31 C23         5.0139    0.6545    2.1452 C.2       1 <0>        -0.0180
     32 C24         5.5312   -0.6873    1.8177 C.2       1 <0>         0.1788
     33 H1         -0.4292   -1.1042    0.2387 H         1 <0>         0.0311
     34 H2          1.3493    0.2841   -1.7811 H         1 <0>         0.0322
     35 H3         -3.1274   -0.6641   -2.3239 H         1 <0>         0.0631
     36 H4         -0.8671   -0.9403   -2.7357 H         1 <0>         0.0294
     37 H5         -0.9627   -2.3583   -1.6712 H         1 <0>         0.0294
     38 H6         -0.7752    0.9539    1.6294 H         1 <0>         0.0286
     39 H7         -1.0231    2.4983    0.8639 H         1 <0>         0.0286
     40 H8          1.3009    2.0592    1.7228 H         1 <0>         0.0483
     41 H9          1.5053   -2.1060   -2.0946 H         1 <0>         0.0299
     42 H10         1.6426   -2.4105   -0.3857 H         1 <0>         0.0299
     43 H11        -1.5886    1.3022   -2.6199 H         1 <0>         0.0236
     44 H12        -1.4463    2.7036   -1.5649 H         1 <0>         0.0236
     45 H13        -0.0112    1.8597   -2.1499 H         1 <0>         0.0236
     46 H14         3.6603   -1.0304   -2.2114 H         1 <0>         0.0699
     47 H15         3.2532    1.3206   -1.9172 H         1 <0>         0.0242
     48 H16         3.8983    2.5240   -0.7937 H         1 <0>         0.0242
     49 H17         4.9080    1.2145   -1.3307 H         1 <0>         0.0242
     50 H18         3.7247    2.2120    1.6765 H         1 <0>         0.0582
     51 H19        -3.2146    2.5225    1.1624 H         1 <0>         0.0637
     52 H20        -4.4574    1.2684    1.4426 H         1 <0>         0.0637
     53 H21        -5.3808   -0.8133    0.3519 H         1 <0>         0.0281
     54 H22        -5.3677   -2.4986    0.8439 H         1 <0>         0.0281
     55 H23        -5.0009   -1.2162    2.0289 H         1 <0>         0.0281
     56 H24        -1.6463   -2.8018    1.1893 H         1 <0>         0.0281
     57 H25        -2.7406   -2.4689    2.5298 H         1 <0>         0.0281
     58 H26        -3.1610   -3.6897    1.2962 H         1 <0>         0.0281
     59 H27         5.3435   -2.3771    0.4382 H         1 <0>         0.0656
     60 H28         5.4303    1.1670    3.0047 H         1 <0>         0.0653
     61 H29        -5.3046    3.3575    1.2734 H         1 <0>         0.2100
@<TRIPOS>BOND
     1    1   13 1
     2    2   17 1
     3    3   22 1
     4    4   12 1
     5    4   21 1
     6    5   14 1
     7    5   21 1
     8    6   23 2
     9    7   27 1
    10    7   61 1
    11    8   32 2
    12    9   10 1
    13    9   12 1
    14    9   16 1
    15    9   20 1
    16   10   11 1
    17   10   15 1
    18   10   33 1
    19   11   13 1
    20   11   19 1
    21   11   34 1
    22   12   14 1
    23   12   23 1
    24   13   17 1
    25   13   18 1
    26   14   15 1
    27   14   35 1
    28   15   36 1
    29   15   37 1
    30   16   17 1
    31   16   38 1
    32   16   39 1
    33   17   40 1
    34   18   24 1
    35   18   25 1
    36   18   26 1
    37   19   22 1
    38   19   41 1
    39   19   42 1
    40   20   43 1
    41   20   44 1
    42   20   45 1
    43   21   28 1
    44   21   29 1
    45   22   24 1
    46   22   46 1
    47   23   27 1
    48   24   30 2
    49   25   47 1
    50   25   48 1
    51   25   49 1
    52   26   31 2
    53   26   50 1
    54   27   51 1
    55   27   52 1
    56   28   53 1
    57   28   54 1
    58   28   55 1
    59   29   56 1
    60   29   57 1
    61   29   58 1
    62   30   32 1
    63   30   59 1
    64   31   32 1
    65   31   60 1
