@<TRIPOS>MOLECULE
DB08931
   50    53     0     0     0
SMALL
USER_CHARGES

@<TRIPOS>ATOM
      1 F1          6.1452   -0.7075   -0.1938 F         1 <0>        -0.2051
      2 O1         -6.4981    0.6467   -0.7529 O.3       1 <0>        -0.4533
      3 O2         -4.6462    0.0464   -1.9255 O.2       1 <0>        -0.2259
      4 N1          2.9966   -0.3079    1.0786 N.pl3     1 <0>        -0.2413
      5 N2          1.7940    0.2914    1.1466 N.2       1 <0>        -0.1652
      6 N3          3.9867   -2.4176    0.4310 N.ar      1 <0>        -0.2359
      7 N4         -0.8518    0.8462    1.0178 N.ar      1 <0>        -0.2093
      8 N5         -1.2314   -1.3735    0.1601 N.ar      1 <0>        -0.2093
      9 N6         -4.4549    0.3915    0.4039 N.am      1 <0>        -0.2342
     10 N7         -2.6646    2.3360    1.3343 N.pl3     1 <0>        -0.3415
     11 N8         -3.4228   -2.0937   -0.3758 N.pl3     1 <0>        -0.3415
     12 C1          1.6084   -1.8422    0.3427 C.ar      1 <0>         0.0495
     13 C2          2.9451   -1.5856    0.6045 C.ar      1 <0>         0.1592
     14 C3          4.1758    0.4143    1.4943 C.3       1 <0>         0.0715
     15 C4          0.9532   -0.6463    0.6979 C.2       1 <0>         0.1389
     16 C5          4.7921    1.1668    0.3461 C.ar      1 <0>         0.0091
     17 C6         -0.4594   -0.3753    0.6204 C.ar      1 <0>         0.1844
     18 C7          1.2690   -3.1037   -0.1616 C.ar      1 <0>        -0.0474
     19 C8         -3.0850    0.1282    0.4796 C.ar      1 <0>         0.1184
     20 C9          2.3088   -4.0116   -0.3632 C.ar      1 <0>        -0.0428
     21 C10         5.7551    0.5506   -0.4417 C.ar      1 <0>         0.1283
     22 C11         4.3881    2.4704    0.0908 C.ar      1 <0>        -0.0541
     23 C12        -2.1803    1.0658    0.9338 C.ar      1 <0>         0.1437
     24 C13        -2.5482   -1.0858    0.1023 C.ar      1 <0>         0.1437
     25 C14         3.6092   -3.6237   -0.0578 C.ar      1 <0>         0.0300
     26 C15         6.3246    1.2512   -1.5049 C.ar      1 <0>        -0.0261
     27 C16         4.9579    3.1709   -0.9725 C.ar      1 <0>        -0.0613
     28 C17         5.9260    2.5614   -1.7701 C.ar      1 <0>        -0.0590
     29 C18        -5.2485    0.7511    1.6176 C.3       1 <0>         0.0117
     30 C19        -5.1653    0.3283   -0.8480 C.2       1 <0>         0.4069
     31 C20        -7.2466    0.6320   -1.9746 C.3       1 <0>         0.0833
     32 H1          4.8858   -0.2992    1.9287 H         1 <0>         0.0560
     33 H2          3.8919    1.0960    2.3057 H         1 <0>         0.0560
     34 H3          0.2501   -3.3910   -0.3948 H         1 <0>         0.0626
     35 H4          2.1056   -5.0039   -0.7519 H         1 <0>         0.0633
     36 H5          3.6343    2.9547    0.7052 H         1 <0>         0.0622
     37 H6          4.4289   -4.3209   -0.2102 H         1 <0>         0.0830
     38 H7          7.0783    0.7765   -2.1260 H         1 <0>         0.0646
     39 H8          4.6474    4.1909   -1.1793 H         1 <0>         0.0618
     40 H9          6.3696    3.1068   -2.5980 H         1 <0>         0.0618
     41 H10        -5.5930    1.7845    1.5188 H         1 <0>         0.0434
     42 H11        -4.6421    0.6327    2.5199 H         1 <0>         0.0434
     43 H12        -6.1166    0.0877    1.6805 H         1 <0>         0.0434
     44 H13        -1.9745    2.9995    1.6652 H         1 <0>         0.1438
     45 H14        -3.4798    2.7037    0.8591 H         1 <0>         0.1438
     46 H15        -4.3654   -2.1197   -0.0063 H         1 <0>         0.1438
     47 H16        -2.9973   -2.9723   -0.6457 H         1 <0>         0.1438
     48 H17        -7.2356   -0.3704   -2.4127 H         1 <0>         0.0661
     49 H18        -6.8404    1.3673   -2.6757 H         1 <0>         0.0661
     50 H19        -8.2801    0.9022   -1.7421 H         1 <0>         0.0661
@<TRIPOS>BOND
     1    1   21 1
     2    2   30 1
     3    2   31 1
     4    3   30 2
     5    4    5 1
     6    4   13 2
     7    4   14 1
     8    5   15 1
     9    6   13 ar
    10    6   25 ar
    11    7   17 ar
    12    7   23 ar
    13    8   17 ar
    14    8   24 ar
    15    9   19 1
    16    9   29 1
    17    9   30 am
    18   10   23 1
    19   10   44 1
    20   10   45 1
    21   11   24 1
    22   11   46 1
    23   11   47 1
    24   12   13 ar
    25   12   15 2
    26   12   18 ar
    27   14   16 1
    28   14   32 1
    29   14   33 1
    30   15   17 1
    31   16   21 ar
    32   16   22 ar
    33   18   20 ar
    34   18   34 1
    35   19   23 ar
    36   19   24 ar
    37   20   25 ar
    38   20   35 1
    39   21   26 ar
    40   22   27 ar
    41   22   36 1
    42   25   37 1
    43   26   28 ar
    44   26   38 1
    45   27   28 ar
    46   27   39 1
    47   28   40 1
    48   29   41 1
    49   29   42 1
    50   29   43 1
    51   31   48 1
    52   31   49 1
    53   31   50 1
