@<TRIPOS>MOLECULE
DB08930
   49    52     0     0     0
SMALL
USER_CHARGES

@<TRIPOS>ATOM
      1 F1         -5.7027    1.8497    1.2548 F         1 <0>        -0.2051
      2 F2         -7.9965    1.0680   -2.8093 F         1 <0>        -0.2054
      3 O1          4.5993   -1.9647   -0.1358 O.3       1 <0>        -0.3568
      4 O2          3.1332    2.3221    1.1093 O.2       1 <0>        -0.2682
      5 O3          0.6114    2.9187    0.8840 O.3       1 <0>        -0.5017
      6 O4         -1.9218    1.8087    0.8142 O.2       1 <0>        -0.2831
      7 O5         -2.6340   -2.1332   -0.0174 O.2       1 <0>        -0.2700
      8 N1          3.8619    0.2950    0.2592 N.am      1 <0>        -0.2660
      9 N2          1.2455   -0.7065    0.5611 N.pl3     1 <0>        -0.3352
     10 N3         -3.4308   -0.3862    1.3055 N.am      1 <0>        -0.3070
     11 C1          3.5162   -1.0345   -0.2566 C.3       1 <0>         0.1455
     12 C2          5.2041    0.8259   -0.0378 C.3       1 <0>         0.0281
     13 C3          6.2684   -0.2695    0.0270 C.3       1 <0>        -0.0108
     14 C4          2.3700   -1.6310    0.5438 C.3       1 <0>         0.0667
     15 C5          5.8109   -1.5073   -0.7208 C.3       1 <0>         0.0517
     16 C6          2.8787    1.1818    0.7195 C.2       1 <0>         0.2690
     17 C7          1.4572    0.6685    0.6926 C.2       1 <0>         0.1505
     18 C8          5.2108    1.5394   -1.3955 C.3       1 <0>        -0.0463
     19 C9         -0.0565   -1.1874    0.5469 C.2       1 <0>         0.0214
     20 C10         0.4415    1.5564    0.7801 C.2       1 <0>         0.1936
     21 C11        -1.1545   -0.4262    0.6259 C.2       1 <0>         0.1030
     22 C12        -0.9657    1.0432    0.7452 C.2       1 <0>         0.2357
     23 C13        -2.4637   -1.0776    0.5949 C.2       1 <0>         0.2496
     24 C14        -4.8023   -0.8277    1.4225 C.3       1 <0>         0.0399
     25 C15        -5.6540   -0.3208    0.2946 C.ar      1 <0>         0.0050
     26 C16        -6.0643    1.0123    0.2729 C.ar      1 <0>         0.1308
     27 C17        -6.0348   -1.1846   -0.7322 C.ar      1 <0>        -0.0516
     28 C18        -6.8557    1.4814   -0.7757 C.ar      1 <0>         0.0091
     29 C19        -6.8263   -0.7156   -1.7806 C.ar      1 <0>        -0.0260
     30 C20        -7.2369    0.6174   -1.8025 C.ar      1 <0>         0.1261
     31 H1          3.2399   -0.9274   -1.3132 H         1 <0>         0.0828
     32 H2          5.4467    1.5805    0.7211 H         1 <0>         0.0499
     33 H3          6.4178   -0.5374    1.0812 H         1 <0>         0.0305
     34 H4          7.2290    0.0867   -0.3601 H         1 <0>         0.0305
     35 H5          2.0951   -2.6006    0.1080 H         1 <0>         0.0534
     36 H6          2.6856   -1.8394    1.5752 H         1 <0>         0.0534
     37 H7          5.6669   -1.3266   -1.7913 H         1 <0>         0.0561
     38 H8          6.5548   -2.3033   -0.6157 H         1 <0>         0.0561
     39 H9          4.5045    2.3766   -1.3997 H         1 <0>         0.0248
     40 H10         6.2045    1.9409   -1.6193 H         1 <0>         0.0248
     41 H11         4.9209    0.8687   -2.2107 H         1 <0>         0.0248
     42 H12        -0.1109   -2.2687    0.4709 H         1 <0>         0.0818
     43 H13         1.5536    3.1408    0.8355 H         1 <0>         0.2924
     44 H14        -3.1870    0.4742    1.7863 H         1 <0>         0.1493
     45 H15        -5.1903   -0.4640    2.3808 H         1 <0>         0.0513
     46 H16        -4.8206   -1.9231    1.4639 H         1 <0>         0.0513
     47 H17        -5.7211   -2.2251   -0.7292 H         1 <0>         0.0623
     48 H18        -7.1749    2.5191   -0.7928 H         1 <0>         0.0675
     49 H19        -7.1228   -1.3877   -2.5805 H         1 <0>         0.0646
@<TRIPOS>BOND
     1    1   26 1
     2    2   30 1
     3    3   11 1
     4    3   15 1
     5    4   16 2
     6    5   20 1
     7    5   43 1
     8    6   22 2
     9    7   23 2
    10    8   11 1
    11    8   12 1
    12    8   16 am
    13    9   14 1
    14    9   17 1
    15    9   19 2
    16   10   23 am
    17   10   24 1
    18   10   44 1
    19   11   14 1
    20   11   31 1
    21   12   13 1
    22   12   18 1
    23   12   32 1
    24   13   15 1
    25   13   33 1
    26   13   34 1
    27   14   35 1
    28   14   36 1
    29   15   37 1
    30   15   38 1
    31   16   17 1
    32   17   20 2
    33   18   39 1
    34   18   40 1
    35   18   41 1
    36   19   21 1
    37   19   42 1
    38   20   22 1
    39   21   22 1
    40   21   23 1
    41   24   25 1
    42   24   45 1
    43   24   46 1
    44   25   26 ar
    45   25   27 ar
    46   26   28 ar
    47   27   29 ar
    48   27   47 1
    49   28   30 ar
    50   28   48 1
    51   29   30 ar
    52   29   49 1
