@<TRIPOS>MOLECULE
DB08971
   56    59     0     0     0
SMALL
USER_CHARGES

@<TRIPOS>ATOM
      1 F1          3.6166   -3.1280   -0.3407 F         1 <0>        -0.2407
      2 O1          0.5562    2.2493   -1.1845 O.3       1 <0>        -0.3914
      3 O2         -5.0710    0.0205   -0.5187 O.2       1 <0>        -0.2946
      4 O3         -5.4291    2.4596    0.7152 O.3       1 <0>        -0.3875
      5 O4          6.2246    0.0677    2.3100 O.2       1 <0>        -0.2879
      6 C1         -1.6019    0.2535   -0.1934 C.3       1 <0>        -0.0168
      7 C2         -0.7105   -0.9770    0.0660 C.3       1 <0>        -0.0313
      8 C3          0.7143   -0.8235   -0.4832 C.3       1 <0>        -0.0285
      9 C4          1.3917    0.4064    0.2187 C.3       1 <0>         0.0009
     10 C5         -2.9135   -0.2556    0.4531 C.3       1 <0>         0.0281
     11 C6         -1.5696   -2.1485   -0.4035 C.3       1 <0>        -0.0462
     12 C7         -0.9639    1.4550    0.5268 C.3       1 <0>        -0.0202
     13 C8         -3.0081   -1.7376   -0.0034 C.3       1 <0>        -0.0335
     14 C9          0.5080    1.6910    0.1211 C.3       1 <0>         0.0599
     15 C10         2.9072    0.5729   -0.1997 C.3       1 <0>         0.0158
     16 C11         1.5232   -2.1093   -0.2500 C.3       1 <0>        -0.0143
     17 C12        -1.8208    0.5636   -1.6972 C.3       1 <0>        -0.0586
     18 C13         2.9826   -1.9602   -0.6542 C.3       1 <0>         0.1235
     19 C14         3.6011   -0.7745    0.0432 C.2       1 <0>        -0.0226
     20 C15        -4.1266    0.5392    0.0748 C.2       1 <0>         0.1623
     21 C16        -3.5739   -2.6291    1.0979 C.3       1 <0>        -0.0617
     22 C17         3.1113    0.9581   -1.6825 C.3       1 <0>        -0.0519
     23 C18         3.5531    1.6815    0.6185 C.2       1 <0>        -0.0701
     24 C19         4.6622   -0.9272    0.8513 C.2       1 <0>        -0.0122
     25 C20        -4.1174    2.0025    0.4632 C.3       1 <0>         0.1025
     26 C21         4.6080    1.5328    1.4255 C.2       1 <0>        -0.0180
     27 C22         5.2456    0.2140    1.5860 C.2       1 <0>         0.1788
     28 H1         -0.6077   -1.1023    1.1576 H         1 <0>         0.0309
     29 H2          0.6763   -0.6538   -1.5638 H         1 <0>         0.0308
     30 H3          1.4028    0.1618    1.2951 H         1 <0>         0.0340
     31 H4         -2.8361   -0.2189    1.5488 H         1 <0>         0.0386
     32 H5         -1.4996   -2.2733   -1.4904 H         1 <0>         0.0271
     33 H6         -1.2591   -3.0925    0.0563 H         1 <0>         0.0271
     34 H7         -0.9975    1.2932    1.6119 H         1 <0>         0.0296
     35 H8         -1.5231    2.3719    0.3212 H         1 <0>         0.0296
     36 H9         -3.6466   -1.8593   -0.8869 H         1 <0>         0.0305
     37 H10         0.9097    2.4515    0.7998 H         1 <0>         0.0596
     38 H11         1.0881   -2.9422   -0.8155 H         1 <0>         0.0299
     39 H12         1.4693   -2.4069    0.8060 H         1 <0>         0.0299
     40 H13        -2.4376   -0.1921   -2.1946 H         1 <0>         0.0235
     41 H14        -2.3234    1.5259   -1.8368 H         1 <0>         0.0235
     42 H15        -0.8879    0.6125   -2.2624 H         1 <0>         0.0235
     43 H16         3.0691   -1.8452   -1.7395 H         1 <0>         0.0699
     44 H17        -3.6328   -3.6688    0.7594 H         1 <0>         0.0233
     45 H18        -2.9464   -2.6031    1.9954 H         1 <0>         0.0233
     46 H19        -4.5824   -2.3083    1.3781 H         1 <0>         0.0233
     47 H20         2.5067    0.3508   -2.3626 H         1 <0>         0.0241
     48 H21         2.8677    2.0079   -1.8784 H         1 <0>         0.0241
     49 H22         4.1596    0.8287   -1.9831 H         1 <0>         0.0241
     50 H23         3.1426    2.6840    0.5202 H         1 <0>         0.0582
     51 H24         0.0379    3.0718   -1.1757 H         1 <0>         0.2098
     52 H25         5.1272   -1.8940    1.0119 H         1 <0>         0.0656
     53 H26        -3.6877    2.5968   -0.3451 H         1 <0>         0.0636
     54 H27        -3.5488    2.1349    1.3869 H         1 <0>         0.0636
     55 H28         5.0254    2.3725    1.9687 H         1 <0>         0.0653
     56 H29        -5.3655    3.3993    0.9573 H         1 <0>         0.2100
@<TRIPOS>BOND
     1    1   18 1
     2    2   14 1
     3    2   51 1
     4    3   20 2
     5    4   25 1
     6    4   56 1
     7    5   27 2
     8    6    7 1
     9    6   10 1
    10    6   12 1
    11    6   17 1
    12    7    8 1
    13    7   11 1
    14    7   28 1
    15    8    9 1
    16    8   16 1
    17    8   29 1
    18    9   14 1
    19    9   15 1
    20    9   30 1
    21   10   13 1
    22   10   20 1
    23   10   31 1
    24   11   13 1
    25   11   32 1
    26   11   33 1
    27   12   14 1
    28   12   34 1
    29   12   35 1
    30   13   21 1
    31   13   36 1
    32   14   37 1
    33   15   19 1
    34   15   22 1
    35   15   23 1
    36   16   18 1
    37   16   38 1
    38   16   39 1
    39   17   40 1
    40   17   41 1
    41   17   42 1
    42   18   19 1
    43   18   43 1
    44   19   24 2
    45   20   25 1
    46   21   44 1
    47   21   45 1
    48   21   46 1
    49   22   47 1
    50   22   48 1
    51   22   49 1
    52   23   26 2
    53   23   50 1
    54   24   27 1
    55   24   52 1
    56   25   53 1
    57   25   54 1
    58   26   27 1
    59   26   55 1
