@<TRIPOS>MOLECULE
DB08895
   43    45     0     0     0
SMALL
USER_CHARGES

@<TRIPOS>ATOM
      1 O1          3.6270   -1.5610   -1.8063 O.2       1 <0>        -0.2745
      2 N1          2.7415   -0.0004   -0.3286 N.am      1 <0>        -0.2989
      3 N2         -0.9779   -0.2416   -0.5693 N.pl3     1 <0>        -0.3128
      4 N3         -1.8998   -1.9943    0.7645 N.2       1 <0>        -0.2200
      5 N4         -5.5882   -0.4845    0.1012 N.pl3     1 <0>        -0.3457
      6 N5         -4.2898   -2.2092    1.1755 N.2       1 <0>        -0.2178
      7 N6          6.8268   -2.2609   -1.3763 N.1       1 <0>        -0.1961
      8 C1          0.3201   -0.2691    0.0693 C.3       1 <0>         0.0429
      9 C2          0.3801    0.7255    1.2473 C.3       1 <0>        -0.0224
     10 C3          1.7975    0.7053    1.8477 C.3       1 <0>        -0.0328
     11 C4          1.4203   -0.0121   -0.9629 C.3       1 <0>         0.0335
     12 C5          2.8858    0.9319    0.7970 C.3       1 <0>         0.0151
     13 C6         -0.0356    2.1549    0.8748 C.3       1 <0>        -0.0606
     14 C7         -2.0796   -0.8852    0.0025 C.cat     1 <0>         0.1338
     15 C8          3.7681   -0.7827   -0.8593 C.2       1 <0>         0.2295
     16 C9         -1.1102    0.4663   -1.8399 C.3       1 <0>         0.0024
     17 C10        -3.3778   -0.4042   -0.1954 C.2       1 <0>         0.0585
     18 C11         5.1236   -0.6502   -0.2120 C.3       1 <0>         0.1112
     19 C12        -4.4095   -1.1085    0.4130 C.2       1 <0>         0.1432
     20 C13        -3.9715    0.6786   -0.8933 C.2       1 <0>        -0.0318
     21 C14        -2.9982   -2.5777    1.2949 C.2       1 <0>         0.1204
     22 C15        -5.3335    0.6040   -0.6932 C.2       1 <0>         0.0042
     23 C16         6.0647   -1.5499   -0.8662 C.1       1 <0>         0.0719
     24 H1          0.5100   -1.2739    0.4736 H         1 <0>         0.0518
     25 H2         -0.3139    0.3896    2.0296 H         1 <0>         0.0317
     26 H3          1.9629   -0.2733    2.3174 H         1 <0>         0.0284
     27 H4          1.8885    1.4545    2.6426 H         1 <0>         0.0284
     28 H5          1.3978   -0.7794   -1.7447 H         1 <0>         0.0483
     29 H6          1.3375    0.9681   -1.4463 H         1 <0>         0.0483
     30 H7          2.8241    1.9457    0.3856 H         1 <0>         0.0465
     31 H8          3.8626    0.8463    1.2758 H         1 <0>         0.0465
     32 H9         -1.0975    2.2016    0.6140 H         1 <0>         0.0233
     33 H10         0.1091    2.8282    1.7270 H         1 <0>         0.0233
     34 H11         0.5401    2.5558    0.0362 H         1 <0>         0.0233
     35 H12        -1.9817    0.1272   -2.4101 H         1 <0>         0.0428
     36 H13        -0.3020    0.2623   -2.5469 H         1 <0>         0.0428
     37 H14        -1.1753    1.5479   -1.6908 H         1 <0>         0.0428
     38 H15         5.4674    0.3852   -0.3009 H         1 <0>         0.0513
     39 H16         5.0461   -0.9169    0.8468 H         1 <0>         0.0513
     40 H17        -3.4992    1.4641   -1.4639 H         1 <0>         0.0640
     41 H18        -6.5038   -0.7797    0.4108 H         1 <0>         0.1668
     42 H19        -2.8144   -3.4607    1.8974 H         1 <0>         0.1048
     43 H20        -6.1423    1.2324   -1.0387 H         1 <0>         0.0807
@<TRIPOS>BOND
     1    1   15 2
     2    2   11 1
     3    2   12 1
     4    2   15 am
     5    3    8 1
     6    3   14 1
     7    3   16 1
     8    4   14 1
     9    4   21 2
    10    5   19 1
    11    5   22 2
    12    5   41 1
    13    6   19 2
    14    6   21 1
    15    7   23 3
    16    8    9 1
    17    8   11 1
    18    8   24 1
    19    9   10 1
    20    9   13 1
    21    9   25 1
    22   10   12 1
    23   10   26 1
    24   10   27 1
    25   11   28 1
    26   11   29 1
    27   12   30 1
    28   12   31 1
    29   13   32 1
    30   13   33 1
    31   13   34 1
    32   14   17 1
    33   15   18 1
    34   16   35 1
    35   16   36 1
    36   16   37 1
    37   17   19 2
    38   17   20 2
    39   18   23 1
    40   18   38 1
    41   18   39 1
    42   20   22 1
    43   20   40 1
    44   21   42 1
    45   22   43 1
