@<TRIPOS>MOLECULE
DB08944
   42    42     0     0     0
SMALL
USER_CHARGES

@<TRIPOS>ATOM
      1 N1         -2.8826   -1.1631    0.0413 N.3       1 <0>        -0.3056
      2 N2          0.4635    1.5812   -2.7421 N.1       1 <0>        -0.1956
      3 C1          0.5994    0.6711   -0.2547 C.3       1 <0>         0.0859
      4 C2         -0.8628    0.3023    0.2005 C.3       1 <0>        -0.0148
      5 C3          1.1578    1.8515    0.6548 C.3       1 <0>        -0.0241
      6 C4         -1.5922   -0.8346   -0.5610 C.3       1 <0>         0.0088
      7 C5          1.5190   -0.5620   -0.0989 C.ar      1 <0>        -0.0272
      8 C6          2.5818    2.2960    0.2698 C.3       1 <0>        -0.0609
      9 C7          0.2538    3.0964    0.6969 C.3       1 <0>        -0.0609
     10 C8         -1.8115   -0.4300   -2.0216 C.3       1 <0>        -0.0494
     11 C9          0.5263    1.1741   -1.6565 C.1       1 <0>         0.0742
     12 C10         2.1438   -1.0432   -1.2172 C.ar      1 <0>        -0.0571
     13 C11         1.6592   -1.1059    1.1489 C.ar      1 <0>        -0.0571
     14 C12        -3.7797   -0.0087   -0.0084 C.3       1 <0>        -0.0128
     15 C13        -2.7041   -1.6116    1.4222 C.3       1 <0>        -0.0128
     16 C14         2.9737   -2.1556   -1.0767 C.ar      1 <0>        -0.0615
     17 C15         2.4892   -2.2183    1.2892 C.ar      1 <0>        -0.0615
     18 C16         3.1464   -2.7430    0.1763 C.ar      1 <0>        -0.0617
     19 H1         -1.4675    1.2102    0.0992 H         1 <0>         0.0299
     20 H2         -0.8229    0.0872    1.2725 H         1 <0>         0.0299
     21 H3          1.2160    1.4996    1.6933 H         1 <0>         0.0314
     22 H4         -0.9772   -1.7426   -0.5591 H         1 <0>         0.0460
     23 H5          2.6151    2.7289   -0.7349 H         1 <0>         0.0233
     24 H6          3.2927    1.4655    0.3099 H         1 <0>         0.0233
     25 H7          2.9451    3.0590    0.9676 H         1 <0>         0.0233
     26 H8         -0.7057    2.8834    1.1765 H         1 <0>         0.0233
     27 H9          0.0637    3.5022   -0.3013 H         1 <0>         0.0233
     28 H10         0.7234    3.8906    1.2890 H         1 <0>         0.0233
     29 H11        -2.0993    0.6176   -2.1545 H         1 <0>         0.0245
     30 H12        -2.6008   -1.0428   -2.4778 H         1 <0>         0.0245
     31 H13        -0.9268   -0.6555   -2.6240 H         1 <0>         0.0245
     32 H14         2.0453   -0.6272   -2.2116 H         1 <0>         0.0621
     33 H15         1.1563   -0.7196    2.0281 H         1 <0>         0.0621
     34 H16        -3.9879    0.3363   -1.0253 H         1 <0>         0.0391
     35 H17        -3.4552    0.8413    0.6001 H         1 <0>         0.0391
     36 H18        -4.7588   -0.3089    0.3871 H         1 <0>         0.0391
     37 H19        -3.6335   -2.0784    1.7696 H         1 <0>         0.0391
     38 H20        -2.4735   -0.8082    2.1293 H         1 <0>         0.0391
     39 H21        -1.9301   -2.3841    1.4960 H         1 <0>         0.0391
     40 H22         3.4856   -2.5650   -1.9428 H         1 <0>         0.0618
     41 H23         2.6230   -2.6767    2.2647 H         1 <0>         0.0618
     42 H24         3.7923   -3.6093    0.2857 H         1 <0>         0.0618
@<TRIPOS>BOND
     1    1    6 1
     2    1   14 1
     3    1   15 1
     4    2   11 3
     5    3    4 1
     6    3    5 1
     7    3    7 1
     8    3   11 1
     9    4    6 1
    10    4   19 1
    11    4   20 1
    12    5    8 1
    13    5    9 1
    14    5   21 1
    15    6   10 1
    16    6   22 1
    17    7   12 ar
    18    7   13 ar
    19    8   23 1
    20    8   24 1
    21    8   25 1
    22    9   26 1
    23    9   27 1
    24    9   28 1
    25   10   29 1
    26   10   30 1
    27   10   31 1
    28   12   16 ar
    29   12   32 1
    30   13   17 ar
    31   13   33 1
    32   14   34 1
    33   14   35 1
    34   14   36 1
    35   15   37 1
    36   15   38 1
    37   15   39 1
    38   16   18 ar
    39   16   40 1
    40   17   18 ar
    41   17   41 1
    42   18   42 1
