@<TRIPOS>MOLECULE
DB08875
   61    65     0     0     0
SMALL
USER_CHARGES

@<TRIPOS>ATOM
      1 F1         -8.6844   -4.2840    0.2362 F         1 <0>        -0.2055
      2 O1         -2.3490    1.8899    1.5103 O.2       1 <0>        -0.2743
      3 O2         -6.0723    1.5413   -0.9924 O.2       1 <0>        -0.2743
      4 O3          2.6462   -0.3704   -2.0599 O.3       1 <0>        -0.4553
      5 O4          6.9372    1.6304   -0.2210 O.3       1 <0>        -0.4914
      6 O5          7.9851   -0.3226    1.4557 O.3       1 <0>        -0.4914
      7 N1         -2.4638    1.4474   -0.7998 N.am      1 <0>        -0.2846
      8 N2         -5.4113    0.1570    0.7881 N.am      1 <0>        -0.2846
      9 N3          4.3242   -3.1933    0.4719 N.ar      1 <0>        -0.2546
     10 C1         -4.3829    2.2872    0.4230 C.3       1 <0>         0.1233
     11 C2         -4.6520    3.7180    0.0601 C.3       1 <0>        -0.0292
     12 C3         -4.8117    3.2616    1.4808 C.3       1 <0>        -0.0292
     13 C4         -2.9505    1.8533    0.4456 C.2       1 <0>         0.2323
     14 C5         -5.3867    1.2876   -0.0114 C.2       1 <0>         0.2323
     15 C6         -1.1838    0.9905   -1.1153 C.ar      1 <0>         0.0336
     16 C7         -6.2469   -0.9768    0.6474 C.ar      1 <0>         0.0336
     17 C8         -0.8765    0.6267   -2.4265 C.ar      1 <0>        -0.0370
     18 C9         -0.2111    0.8987   -0.1199 C.ar      1 <0>        -0.0370
     19 C10        -6.1415   -2.0370    1.5477 C.ar      1 <0>        -0.0378
     20 C11        -7.1761   -1.0337   -0.3914 C.ar      1 <0>        -0.0378
     21 C12         0.4034    0.1711   -2.7421 C.ar      1 <0>        -0.0176
     22 C13         1.0689    0.4431   -0.4355 C.ar      1 <0>        -0.0176
     23 C14        -6.9651   -3.1541    1.4093 C.ar      1 <0>        -0.0247
     24 C15        -7.9998   -2.1508   -0.5299 C.ar      1 <0>        -0.0247
     25 C16         1.3761    0.0793   -1.7465 C.ar      1 <0>         0.1286
     26 C17        -7.8943   -3.2111    0.3704 C.ar      1 <0>         0.1235
     27 C18         3.2175   -1.2835   -1.2219 C.ar      1 <0>         0.1391
     28 C19         4.4223   -1.0167   -0.5577 C.ar      1 <0>         0.0463
     29 C20         4.9472   -2.0133    0.2915 C.ar      1 <0>         0.0782
     30 C21         2.5734   -2.4984   -1.0381 C.ar      1 <0>        -0.0006
     31 C22         5.0990    0.2037   -0.7226 C.ar      1 <0>        -0.0036
     32 C23         6.1439   -1.7476    0.9513 C.ar      1 <0>         0.0098
     33 C24         6.2942    0.4427   -0.0505 C.ar      1 <0>         0.1623
     34 C25         6.8170   -0.5344    0.7875 C.ar      1 <0>         0.1635
     35 C26         3.1636   -3.4113   -0.1878 C.ar      1 <0>         0.0318
     36 C27         6.5961    2.6876    0.6742 C.3       1 <0>         0.0790
     37 C28         9.1885   -0.7127    0.7969 C.3       1 <0>         0.0790
     38 H1         -5.5545    3.9838   -0.4775 H         1 <0>         0.0280
     39 H2         -3.8108    4.3636   -0.1667 H         1 <0>         0.0280
     40 H3         -4.0930    3.6315    2.2023 H         1 <0>         0.0280
     41 H4         -5.8198    3.1928    1.8741 H         1 <0>         0.0280
     42 H5         -3.1150    1.4897   -1.5810 H         1 <0>         0.1548
     43 H6         -4.7646    0.1219    1.5731 H         1 <0>         0.1548
     44 H7         -1.6248    0.6932   -3.2123 H         1 <0>         0.0637
     45 H8         -0.3730    1.1659    0.9152 H         1 <0>         0.0637
     46 H9         -5.4215   -2.0053    2.3615 H         1 <0>         0.0637
     47 H10        -7.3153   -0.2532   -1.1262 H         1 <0>         0.0637
     48 H11         0.6376   -0.1109   -3.7649 H         1 <0>         0.0655
     49 H12         1.8126    0.3985    0.3554 H         1 <0>         0.0655
     50 H13        -6.8831   -3.9799    2.1098 H         1 <0>         0.0647
     51 H14        -8.7235   -2.1969   -1.3385 H         1 <0>         0.0647
     52 H15         4.7016    0.9776   -1.3762 H         1 <0>         0.0663
     53 H16         1.6462   -2.7440   -1.5441 H         1 <0>         0.0670
     54 H17         6.5680   -2.5017    1.6130 H         1 <0>         0.0677
     55 H18         2.7073   -4.3789   -0.0074 H         1 <0>         0.0831
     56 H19         7.1955    3.5642    0.4134 H         1 <0>         0.0660
     57 H20         6.8206    2.4047    1.7075 H         1 <0>         0.0660
     58 H21         5.5368    2.9456    0.5764 H         1 <0>         0.0660
     59 H22        10.0306   -0.4746    1.4524 H         1 <0>         0.0660
     60 H23         9.3096   -0.1630   -0.1419 H         1 <0>         0.0660
     61 H24         9.1883   -1.7903    0.6045 H         1 <0>         0.0660
@<TRIPOS>BOND
     1    1   26 1
     2    2   13 2
     3    3   14 2
     4    4   25 1
     5    4   27 1
     6    5   33 1
     7    5   36 1
     8    6   34 1
     9    6   37 1
    10    7   13 am
    11    7   15 1
    12    7   42 1
    13    8   14 am
    14    8   16 1
    15    8   43 1
    16    9   29 ar
    17    9   35 ar
    18   10   11 1
    19   10   12 1
    20   10   13 1
    21   10   14 1
    22   11   12 1
    23   11   38 1
    24   11   39 1
    25   12   40 1
    26   12   41 1
    27   15   17 ar
    28   15   18 ar
    29   16   19 ar
    30   16   20 ar
    31   17   21 ar
    32   17   44 1
    33   18   22 ar
    34   18   45 1
    35   19   23 ar
    36   19   46 1
    37   20   24 ar
    38   20   47 1
    39   21   25 ar
    40   21   48 1
    41   22   25 ar
    42   22   49 1
    43   23   26 ar
    44   23   50 1
    45   24   26 ar
    46   24   51 1
    47   27   28 ar
    48   27   30 ar
    49   28   29 ar
    50   28   31 ar
    51   29   32 ar
    52   30   35 ar
    53   30   53 1
    54   31   33 ar
    55   31   52 1
    56   32   34 ar
    57   32   54 1
    58   33   34 ar
    59   35   55 1
    60   36   56 1
    61   36   57 1
    62   36   58 1
    63   37   59 1
    64   37   60 1
    65   37   61 1
