@<TRIPOS>MOLECULE
DB08946
   29    29     0     0     0
SMALL
USER_CHARGES

@<TRIPOS>ATOM
      1 I1         -0.9656   -2.9420    0.3979 I         1 <0>        -0.0416
      2 I2         -0.3223    3.0894    1.1506 I         1 <0>        -0.0435
      3 I3         -5.5311    0.9565   -0.7969 I         1 <0>        -0.0419
      4 O1          1.0020    1.8534   -1.3586 O.3       1 <0>        -0.4804
      5 O2          2.6984    2.0291    0.1371 O.2       1 <0>        -0.2507
      6 N1         -3.8790   -1.8485   -0.4884 N.pl3     1 <0>        -0.3564
      7 C1          1.4868   -0.0774   -0.0193 C.3       1 <0>         0.0601
      8 C2          0.4644   -0.1073    1.1319 C.3       1 <0>        -0.0127
      9 C3          2.7739   -0.8160    0.3921 C.3       1 <0>        -0.0427
     10 C4         -0.9569    0.1138    0.6719 C.ar      1 <0>        -0.0185
     11 C5          1.8053    1.3680   -0.3779 C.2       1 <0>         0.3081
     12 C6          3.8394   -0.7898   -0.6967 C.3       1 <0>        -0.0645
     13 C7         -1.7478   -0.9697    0.3089 C.ar      1 <0>         0.0392
     14 C8         -1.4579    1.4090    0.6180 C.ar      1 <0>         0.0186
     15 C9         -3.0594   -0.7547   -0.1146 C.ar      1 <0>         0.0514
     16 C10        -2.7694    1.6238    0.1944 C.ar      1 <0>        -0.0334
     17 C11        -3.5702    0.5420   -0.1720 C.ar      1 <0>         0.0360
     18 H1          1.0925   -0.5698   -0.9174 H         1 <0>         0.0416
     19 H2          0.7482    0.6089    1.9112 H         1 <0>         0.0322
     20 H3          0.5485   -1.0408    1.6962 H         1 <0>         0.0322
     21 H4          2.5360   -1.8614    0.6218 H         1 <0>         0.0271
     22 H5          3.1918   -0.3764    1.3063 H         1 <0>         0.0271
     23 H6          3.4476   -1.1913   -1.6368 H         1 <0>         0.0230
     24 H7          4.6910   -1.4095   -0.3969 H         1 <0>         0.0230
     25 H8          4.2201    0.2179   -0.8837 H         1 <0>         0.0230
     26 H9         -3.1677    2.6354    0.1497 H         1 <0>         0.0639
     27 H10         1.2218    2.7822   -1.5849 H         1 <0>         0.2951
     28 H11        -4.8287   -1.6850   -0.7951 H         1 <0>         0.1424
     29 H12        -3.5116   -2.7898   -0.4487 H         1 <0>         0.1424
@<TRIPOS>BOND
     1    1   13 1
     2    2   14 1
     3    3   17 1
     4    4   11 1
     5    4   27 1
     6    5   11 2
     7    6   15 1
     8    6   28 1
     9    6   29 1
    10    7    8 1
    11    7    9 1
    12    7   11 1
    13    7   18 1
    14    8   10 1
    15    8   19 1
    16    8   20 1
    17    9   12 1
    18    9   21 1
    19    9   22 1
    20   10   13 ar
    21   10   14 ar
    22   12   23 1
    23   12   24 1
    24   12   25 1
    25   13   15 ar
    26   14   16 ar
    27   15   17 ar
    28   16   17 ar
    29   16   26 1
