@<TRIPOS>MOLECULE
DB08934
   65    67     0     0     0
SMALL
USER_CHARGES

@<TRIPOS>ATOM
      1 P1          1.2520   -1.9372    1.8559 P.3       1 <0>         0.4624
      2 F1         -4.9973   -2.0906   -0.2523 F         1 <0>        -0.2347
      3 O1         -2.5166   -0.8887    0.7816 O.3       1 <0>        -0.3450
      4 O2         -3.1386   -3.4331   -1.6726 O.3       1 <0>        -0.3858
      5 O3         -0.2666   -2.4224    1.5200 O.3       1 <0>        -0.2843
      6 O4         -5.0633    2.1050   -0.3919 O.2       1 <0>        -0.2464
      7 O5          1.1199   -0.3352    1.6412 O.3       1 <0>        -0.4128
      8 O6          1.6153   -2.2950    3.2751 O.2       1 <0>        -0.2281
      9 O7         -1.4661    4.2045   -2.3659 O.2       1 <0>        -0.2677
     10 O8          4.0628    0.3000   -0.3939 O.3       1 <0>        -0.4608
     11 O9          2.3742   -0.7944   -1.5173 O.2       1 <0>        -0.2491
     12 N1         -3.0591    0.9192   -0.5805 N.am      1 <0>        -0.2709
     13 N2         -3.2708    3.1488   -1.3746 N.am      1 <0>        -0.2749
     14 N3          2.2344   -2.5293    0.6559 N.pl3     1 <0>        -0.1988
     15 C1         -4.1007   -1.3124   -0.9345 C.3       1 <0>         0.1816
     16 C2         -2.8548   -2.1353   -1.1934 C.3       1 <0>         0.1212
     17 C3         -3.5857   -0.2625    0.0449 C.3       1 <0>         0.1756
     18 C4         -2.2389   -2.1730    0.1954 C.3       1 <0>         0.1140
     19 C5         -4.8058   -0.8013   -2.1760 C.3       1 <0>        -0.0240
     20 C6         -0.7406   -2.4165    0.1833 C.3       1 <0>         0.0879
     21 C7         -3.8855    2.0540   -0.7524 C.2       1 <0>         0.3314
     22 C8         -1.7393    0.9440   -1.0147 C.2       1 <0>         0.0171
     23 C9         -1.1672    1.9952   -1.6057 C.2       1 <0>         0.0192
     24 C10        -1.9615    3.2209   -1.8246 C.2       1 <0>         0.2539
     25 C11         3.4892   -1.8458    0.3811 C.3       1 <0>         0.1129
     26 C12         4.5079   -2.8389   -0.1617 C.3       1 <0>        -0.0388
     27 C13         3.2180   -0.7491   -0.6315 C.2       1 <0>         0.3248
     28 C14         0.3917    0.5149    2.4289 C.ar      1 <0>         0.1311
     29 C15        -0.3167    0.0174    3.5227 C.ar      1 <0>        -0.0194
     30 C16         0.3582    1.8785    2.1382 C.ar      1 <0>        -0.0194
     31 C17         3.9195    1.4201   -1.2734 C.3       1 <0>         0.0975
     32 C18        -1.0588    0.8836    4.3257 C.ar      1 <0>        -0.0583
     33 C19        -0.3837    2.7449    2.9409 C.ar      1 <0>        -0.0583
     34 C20         4.8121    1.2198   -2.4888 C.3       1 <0>        -0.0280
     35 C21         4.2656    2.6954   -0.5202 C.3       1 <0>        -0.0280
     36 C22        -1.0923    2.2474    4.0347 C.ar      1 <0>        -0.0615
     37 H1         -2.2032   -1.6418   -1.9222 H         1 <0>         0.0653
     38 H2         -4.3656    0.0120    0.7638 H         1 <0>         0.0873
     39 H3         -2.7227   -2.9277    0.8287 H         1 <0>         0.0647
     40 H4         -4.1482   -0.2060   -2.8164 H         1 <0>         0.0262
     41 H5         -5.1813   -1.6421   -2.7694 H         1 <0>         0.0262
     42 H6         -5.6774   -0.1974   -1.9041 H         1 <0>         0.0262
     43 H7         -0.2024   -1.6583   -0.3871 H         1 <0>         0.0592
     44 H8         -0.5162   -3.3925   -0.2590 H         1 <0>         0.0592
     45 H9         -2.2958   -3.9116   -1.7470 H         1 <0>         0.2100
     46 H10        -1.1310    0.0708   -0.8690 H         1 <0>         0.0813
     47 H11        -3.8460    3.9756   -1.5093 H         1 <0>         0.1734
     48 H12        -0.1336    1.9794   -1.9293 H         1 <0>         0.0686
     49 H13         2.3704   -3.5393    0.6599 H         1 <0>         0.1354
     50 H14         3.8749   -1.4073    1.3087 H         1 <0>         0.0578
     51 H15         4.1613   -3.3053   -1.0913 H         1 <0>         0.0250
     52 H16         5.4535   -2.3335   -0.3878 H         1 <0>         0.0250
     53 H17         4.7168   -3.6322    0.5642 H         1 <0>         0.0250
     54 H18         2.8775    1.5181   -1.6035 H         1 <0>         0.0728
     55 H19        -0.3485   -1.0334    3.7813 H         1 <0>         0.0654
     56 H20         0.9078    2.2708    1.2868 H         1 <0>         0.0654
     57 H21        -1.6159    0.4961    5.1737 H         1 <0>         0.0619
     58 H22        -0.4108    3.8065    2.7135 H         1 <0>         0.0619
     59 H23         4.5348    0.3098   -3.0310 H         1 <0>         0.0265
     60 H24         4.7411    2.0672   -3.1776 H         1 <0>         0.0265
     61 H25         5.8587    1.0994   -2.1881 H         1 <0>         0.0265
     62 H26         3.6116    2.8120    0.3509 H         1 <0>         0.0265
     63 H27         4.1590    3.5781   -1.1582 H         1 <0>         0.0265
     64 H28         5.2922    2.6583   -0.1396 H         1 <0>         0.0265
     65 H29        -1.6716    2.9217    4.6586 H         1 <0>         0.0618
@<TRIPOS>BOND
     1    1    5 1
     2    1    7 1
     3    1    8 2
     4    1   14 1
     5    2   15 1
     6    3   17 1
     7    3   18 1
     8    4   16 1
     9    4   45 1
    10    5   20 1
    11    6   21 2
    12    7   28 1
    13    9   24 2
    14   10   27 1
    15   10   31 1
    16   11   27 2
    17   12   17 1
    18   12   21 am
    19   12   22 1
    20   13   21 am
    21   13   24 am
    22   13   47 1
    23   14   25 1
    24   14   49 1
    25   15   16 1
    26   15   17 1
    27   15   19 1
    28   16   18 1
    29   16   37 1
    30   17   38 1
    31   18   20 1
    32   18   39 1
    33   19   40 1
    34   19   41 1
    35   19   42 1
    36   20   43 1
    37   20   44 1
    38   22   23 2
    39   22   46 1
    40   23   24 1
    41   23   48 1
    42   25   26 1
    43   25   27 1
    44   25   50 1
    45   26   51 1
    46   26   52 1
    47   26   53 1
    48   28   29 ar
    49   28   30 ar
    50   29   32 ar
    51   29   55 1
    52   30   33 ar
    53   30   56 1
    54   31   34 1
    55   31   35 1
    56   31   54 1
    57   32   36 ar
    58   32   57 1
    59   33   36 ar
    60   33   58 1
    61   34   59 1
    62   34   60 1
    63   34   61 1
    64   35   62 1
    65   35   63 1
    66   35   64 1
    67   36   65 1
