@<TRIPOS>MOLECULE
DB08820
   57    59     0     0     0
SMALL
USER_CHARGES

@<TRIPOS>ATOM
      1 O1         -3.4938   -2.9016    0.5136 O.3       1 <0>        -0.5064
      2 O2          1.1855   -2.9510    0.3248 O.2       1 <0>        -0.2697
      3 O3          3.0714    0.0686    1.8127 O.2       1 <0>        -0.2864
      4 N1          0.7240   -0.6697   -0.0341 N.am      1 <0>        -0.2810
      5 N2          5.0034   -1.8484   -1.1893 N.pl3     1 <0>        -0.3597
      6 C1         -0.6160    1.8700   -0.3994 C.3       1 <0>        -0.0109
      7 C2         -4.9681   -0.4788    0.1728 C.3       1 <0>        -0.0092
      8 C3         -1.3625    0.5985   -0.1570 C.ar      1 <0>        -0.0203
      9 C4         -3.4769   -0.5370    0.1199 C.ar      1 <0>        -0.0002
     10 C5         -2.7557    0.6356   -0.1049 C.ar      1 <0>        -0.0492
     11 C6         -0.6902   -0.6114    0.0153 C.ar      1 <0>         0.0408
     12 C7         -1.5930    3.0747   -0.5584 C.3       1 <0>        -0.0560
     13 C8          0.2404    1.7813   -1.6994 C.3       1 <0>        -0.0560
     14 C9          0.3810    2.2858    0.7311 C.3       1 <0>        -0.0560
     15 C10        -2.8046   -1.7470    0.2925 C.ar      1 <0>         0.1223
     16 C11        -5.7106   -1.3504   -0.8927 C.3       1 <0>        -0.0559
     17 C12        -5.4837    0.9766   -0.0470 C.3       1 <0>        -0.0559
     18 C13        -5.5030   -0.9651    1.5547 C.3       1 <0>        -0.0559
     19 C14        -1.4111   -1.7842    0.2402 C.ar      1 <0>         0.0016
     20 C15         1.5358   -1.7879    0.1173 C.2       1 <0>         0.2534
     21 C16         2.9575   -1.4629    0.0024 C.2       1 <0>         0.1001
     22 C17         3.6607   -0.5064    0.9062 C.2       1 <0>         0.2015
     23 C18         5.1127   -0.2796    0.6619 C.2       1 <0>         0.0457
     24 C19         3.6705   -2.0548   -0.9647 C.2       1 <0>         0.0180
     25 C20         5.7436   -0.9680   -0.3917 C.2       1 <0>         0.0501
     26 C21         5.8330    0.6041    1.4698 C.2       1 <0>        -0.0489
     27 C22         7.1066   -0.7563   -0.6208 C.2       1 <0>        -0.0377
     28 C23         7.1918    0.8041    1.2276 C.2       1 <0>        -0.0610
     29 C24         7.8267    0.1265    0.1862 C.2       1 <0>        -0.0598
     30 H1         -3.2767    1.5657   -0.2374 H         1 <0>         0.0625
     31 H2         -1.0297    3.9985   -0.7463 H         1 <0>         0.0238
     32 H3         -2.2607    2.9608   -1.4211 H         1 <0>         0.0238
     33 H4         -2.1778    3.2634    0.3502 H         1 <0>         0.0238
     34 H5          0.5834    2.7831   -1.9898 H         1 <0>         0.0238
     35 H6          1.1436    1.1739   -1.6672 H         1 <0>         0.0238
     36 H7         -0.3703    1.4071   -2.5308 H         1 <0>         0.0238
     37 H8          0.7881    3.2860    0.5366 H         1 <0>         0.0238
     38 H9         -0.1472    2.3331    1.6915 H         1 <0>         0.0238
     39 H10         1.2425    1.6412    0.8817 H         1 <0>         0.0238
     40 H11        -6.7958   -1.2044   -0.8425 H         1 <0>         0.0238
     41 H12        -5.3808   -1.0807   -1.9028 H         1 <0>         0.0238
     42 H13        -5.5231   -2.4204   -0.7642 H         1 <0>         0.0238
     43 H14        -6.5802    1.0016    0.0069 H         1 <0>         0.0238
     44 H15        -5.1366    1.6653    0.7329 H         1 <0>         0.0238
     45 H16        -5.2238    1.3680   -1.0380 H         1 <0>         0.0238
     46 H17        -6.5812   -0.7842    1.6419 H         1 <0>         0.0238
     47 H18        -5.3502   -2.0340    1.7271 H         1 <0>         0.0238
     48 H19        -5.0129   -0.4234    2.3725 H         1 <0>         0.0238
     49 H20        -0.9518   -2.7516    0.3817 H         1 <0>         0.0673
     50 H21         1.2265    0.1865   -0.1825 H         1 <0>         0.1551
     51 H22        -2.8661   -3.6379    0.6097 H         1 <0>         0.2921
     52 H23         3.2356   -2.7603   -1.6640 H         1 <0>         0.0816
     53 H24         5.4525   -2.3441   -1.9476 H         1 <0>         0.1654
     54 H25         5.3570    1.1410    2.2853 H         1 <0>         0.0625
     55 H26         7.6172   -1.2756   -1.4279 H         1 <0>         0.0638
     56 H27         7.7580    1.4897    1.8517 H         1 <0>         0.0618
     57 H28         8.8854    0.2865    0.0026 H         1 <0>         0.0618
@<TRIPOS>BOND
     1    1   15 1
     2    1   51 1
     3    2   20 2
     4    3   22 2
     5    4   11 1
     6    4   20 am
     7    4   50 1
     8    5   24 1
     9    5   25 2
    10    5   53 1
    11    6    8 1
    12    6   12 1
    13    6   13 1
    14    6   14 1
    15    7    9 1
    16    7   16 1
    17    7   17 1
    18    7   18 1
    19    8   10 ar
    20    8   11 ar
    21    9   10 ar
    22    9   15 ar
    23   10   30 1
    24   11   19 ar
    25   12   31 1
    26   12   32 1
    27   12   33 1
    28   13   34 1
    29   13   35 1
    30   13   36 1
    31   14   37 1
    32   14   38 1
    33   14   39 1
    34   15   19 ar
    35   16   40 1
    36   16   41 1
    37   16   42 1
    38   17   43 1
    39   17   44 1
    40   17   45 1
    41   18   46 1
    42   18   47 1
    43   18   48 1
    44   19   49 1
    45   20   21 1
    46   21   22 1
    47   21   24 2
    48   22   23 1
    49   23   25 1
    50   23   26 2
    51   24   52 1
    52   25   27 2
    53   26   28 1
    54   26   54 1
    55   27   29 1
    56   27   55 1
    57   28   29 2
    58   28   56 1
    59   29   57 1
