@<TRIPOS>MOLECULE
DB08995
   75    79     0     0     0
SMALL
USER_CHARGES

@<TRIPOS>ATOM
      1 O1          3.2317    0.2821    0.8257 O.3       1 <0>        -0.3313
      2 O2          0.6791   -3.9773    0.7779 O.3       1 <0>        -0.3431
      3 O3          1.3006   -1.6873    0.7481 O.3       1 <0>        -0.3461
      4 O4          5.2421   -2.4100   -0.6317 O.3       1 <0>        -0.3865
      5 O5          7.1745   -0.3132   -0.1574 O.3       1 <0>        -0.3864
      6 O6          3.5350    2.5923    0.9501 O.3       1 <0>        -0.4606
      7 O7          5.9355    2.3343   -0.5263 O.3       1 <0>        -0.3829
      8 O8         -1.7197   -3.1573    2.1321 O.3       1 <0>        -0.3841
      9 O9         -2.9076   -2.1176   -0.1597 O.3       1 <0>        -0.3864
     10 O10        -1.5575   -3.6718   -2.1365 O.3       1 <0>        -0.3866
     11 O11        -1.1753    2.6027    0.3435 O.3       1 <0>        -0.4544
     12 O12         1.4538    6.5507   -0.6544 O.3       1 <0>        -0.5058
     13 O13        -1.1506    6.4629   -0.9594 O.2       1 <0>        -0.2869
     14 O14        -6.9808    0.0887    0.4230 O.3       1 <0>        -0.4915
     15 O15        -4.8372   -0.3301    2.1409 O.3       1 <0>        -0.5033
     16 C1          3.4902   -0.9336    0.1213 C.3       1 <0>         0.1144
     17 C2          4.9893   -1.2417    0.1444 C.3       1 <0>         0.1120
     18 C3          5.7923   -0.0724   -0.4258 C.3       1 <0>         0.1152
     19 C4          5.3727    1.2511    0.2137 C.3       1 <0>         0.1454
     20 C5         -0.9780   -2.2704    1.2932 C.3       1 <0>         0.1341
     21 C6          0.4909   -2.6839    1.3624 C.3       1 <0>         0.1879
     22 C7         -1.5011   -2.3505   -0.1420 C.3       1 <0>         0.1140
     23 C8         -1.2098   -3.7208   -0.7549 C.3       1 <0>         0.1095
     24 C9          3.8524    1.4109    0.2147 C.3       1 <0>         0.2308
     25 C10         0.2771   -4.0659   -0.5929 C.3       1 <0>         0.0873
     26 C11         2.6767   -2.0358    0.7921 C.3       1 <0>         0.0796
     27 C12         0.5886   -5.4857   -1.0578 C.3       1 <0>        -0.0361
     28 C13         2.4023    3.2552    0.5807 C.ar      1 <0>         0.1310
     29 C14         1.1672    2.6091    0.6407 C.ar      1 <0>         0.0235
     30 C15         2.4800    4.5788    0.1447 C.ar      1 <0>         0.0226
     31 C16         0.0094    3.2900    0.2638 C.ar      1 <0>         0.1462
     32 C17         1.3237    5.2619   -0.2334 C.ar      1 <0>         0.1347
     33 C18         0.0892    4.6117   -0.1718 C.ar      1 <0>         0.1055
     34 C19        -1.1471    5.3050   -0.5650 C.2       1 <0>         0.1966
     35 C20        -2.3435    3.2560   -0.0183 C.2       1 <0>         0.1393
     36 C21        -2.3955    4.5231   -0.4588 C.2       1 <0>         0.0288
     37 C22        -3.5575    2.4235    0.0997 C.ar      1 <0>         0.0211
     38 C23        -3.6324    1.4258    1.0746 C.ar      1 <0>        -0.0059
     39 C24        -4.6367    2.6303   -0.7633 C.ar      1 <0>        -0.0474
     40 C25        -4.7793    0.6398    1.1863 C.ar      1 <0>         0.1591
     41 C26        -5.7835    1.8440   -0.6517 C.ar      1 <0>        -0.0156
     42 C27        -5.8548    0.8489    0.3231 C.ar      1 <0>         0.1613
     43 C28        -7.0233   -1.1110   -0.3469 C.3       1 <0>         0.0790
     44 H1          3.1254   -0.8240   -0.9091 H         1 <0>         0.0647
     45 H2          5.3249   -1.4492    1.1679 H         1 <0>         0.0647
     46 H3          5.6929   -0.0180   -1.5169 H         1 <0>         0.0648
     47 H4          5.7718    1.3170    1.2334 H         1 <0>         0.0683
     48 H5         -1.1256   -1.2566    1.6812 H         1 <0>         0.0671
     49 H6          0.7827   -2.7724    2.4162 H         1 <0>         0.0937
     50 H7         -1.0407   -1.5620   -0.7502 H         1 <0>         0.0648
     51 H8         -1.8477   -4.4779   -0.2827 H         1 <0>         0.0646
     52 H9          3.4928    1.5181   -0.8197 H         1 <0>         0.1084
     53 H10         0.8886   -3.3836   -1.1970 H         1 <0>         0.0621
     54 H11         2.9783   -2.1341    1.8422 H         1 <0>         0.0587
     55 H12         2.8524   -2.9877    0.2807 H         1 <0>         0.0587
     56 H13         0.3878   -5.6189   -2.1245 H         1 <0>         0.0255
     57 H14         0.0012   -6.2190   -0.4942 H         1 <0>         0.0255
     58 H15         1.6429   -5.7218   -0.8754 H         1 <0>         0.0255
     59 H16         4.9401   -2.2383   -1.5400 H         1 <0>         0.2100
     60 H17         7.4061   -1.1652   -0.5654 H         1 <0>         0.2100
     61 H18         5.6408    3.1595   -0.1042 H         1 <0>         0.2102
     62 H19        -1.4804   -4.0705    1.9004 H         1 <0>         0.2101
     63 H20        -3.2035   -2.1898   -1.0833 H         1 <0>         0.2100
     64 H21        -1.5274   -4.5794   -2.4825 H         1 <0>         0.2100
     65 H22         1.0871    1.5855    0.9943 H         1 <0>         0.0691
     66 H23         3.4459    5.0764    0.0992 H         1 <0>         0.0691
     67 H24        -3.3114    5.0355   -0.7292 H         1 <0>         0.0693
     68 H25         0.5891    6.9212   -0.8885 H         1 <0>         0.2922
     69 H26        -2.8079    1.2502    1.7621 H         1 <0>         0.0662
     70 H27        -4.6121    3.3802   -1.5494 H         1 <0>         0.0626
     71 H28        -6.6163    2.0095   -1.3299 H         1 <0>         0.0655
     72 H29        -5.7136   -0.7502    2.1026 H         1 <0>         0.2923
     73 H30        -7.9630   -1.6255   -0.1281 H         1 <0>         0.0660
     74 H31        -6.9920   -0.8789   -1.4161 H         1 <0>         0.0660
     75 H32        -6.1923   -1.7727   -0.0828 H         1 <0>         0.0660
@<TRIPOS>BOND
     1    1   16 1
     2    1   24 1
     3    2   21 1
     4    2   25 1
     5    3   21 1
     6    3   26 1
     7    4   17 1
     8    4   59 1
     9    5   18 1
    10    5   60 1
    11    6   24 1
    12    6   28 1
    13    7   19 1
    14    7   61 1
    15    8   20 1
    16    8   62 1
    17    9   22 1
    18    9   63 1
    19   10   23 1
    20   10   64 1
    21   11   31 1
    22   11   35 1
    23   12   32 1
    24   12   68 1
    25   13   34 2
    26   14   42 1
    27   14   43 1
    28   15   40 1
    29   15   72 1
    30   16   17 1
    31   16   26 1
    32   16   44 1
    33   17   18 1
    34   17   45 1
    35   18   19 1
    36   18   46 1
    37   19   24 1
    38   19   47 1
    39   20   21 1
    40   20   22 1
    41   20   48 1
    42   21   49 1
    43   22   23 1
    44   22   50 1
    45   23   25 1
    46   23   51 1
    47   24   52 1
    48   25   27 1
    49   25   53 1
    50   26   54 1
    51   26   55 1
    52   27   56 1
    53   27   57 1
    54   27   58 1
    55   28   29 ar
    56   28   30 ar
    57   29   31 ar
    58   29   65 1
    59   30   32 ar
    60   30   66 1
    61   31   33 ar
    62   32   33 ar
    63   33   34 1
    64   34   36 1
    65   35   36 2
    66   35   37 1
    67   36   67 1
    68   37   38 ar
    69   37   39 ar
    70   38   40 ar
    71   38   69 1
    72   39   41 ar
    73   39   70 1
    74   40   42 ar
    75   41   42 ar
    76   41   71 1
    77   43   73 1
    78   43   74 1
    79   43   75 1
