@<TRIPOS>MOLECULE
DB08893
   52    54     0     0     0
SMALL
USER_CHARGES

@<TRIPOS>ATOM
      1 S1          9.6911    1.1719    1.0829 S.3       1 <0>        -0.0608
      2 O1         -6.1343   -1.7149    0.2643 O.3       1 <0>        -0.3859
      3 O2          5.1955    0.3286    0.8575 O.2       1 <0>        -0.2751
      4 N1         -3.3559   -1.1591    0.7774 N.3       1 <0>        -0.3129
      5 N2          4.3221   -1.0814   -0.8105 N.am      1 <0>        -0.2852
      6 N3          7.8486    1.7745   -0.6273 N.2       1 <0>        -0.2296
      7 N4          9.2745    3.5585   -0.0147 N.pl3     1 <0>        -0.3375
      8 C1         -1.9908   -0.9318    0.3149 C.3       1 <0>        -0.0000
      9 C2         -4.2634   -0.1646    0.2238 C.3       1 <0>         0.0261
     10 C3         -1.0214   -1.9792    0.8810 C.3       1 <0>        -0.0151
     11 C4         -5.7026   -0.4218    0.6865 C.3       1 <0>         0.0926
     12 C5          0.3824   -1.7424    0.4369 C.ar      1 <0>        -0.0460
     13 C6         -6.6588    0.6043    0.1192 C.ar      1 <0>        -0.0179
     14 C7          1.2282   -0.9342    1.1967 C.ar      1 <0>        -0.0568
     15 C8          0.8499   -2.3303   -0.7385 C.ar      1 <0>        -0.0568
     16 C9          3.0087   -1.3017   -0.3943 C.ar      1 <0>         0.0334
     17 C10         2.5413   -0.7139    0.7811 C.ar      1 <0>        -0.0402
     18 C11         2.1629   -2.1098   -1.1543 C.ar      1 <0>        -0.0402
     19 C12        -6.9160    1.7814    0.8220 C.ar      1 <0>        -0.0561
     20 C13        -7.2836    0.3730   -1.1062 C.ar      1 <0>        -0.0561
     21 C14        -7.7979    2.7273    0.2993 C.ar      1 <0>        -0.0614
     22 C15        -8.1654    1.3190   -1.6291 C.ar      1 <0>        -0.0614
     23 C16        -8.4226    2.4960   -0.9262 C.ar      1 <0>        -0.0617
     24 C17         5.3138   -0.3063   -0.1857 C.2       1 <0>         0.2230
     25 C18         6.6124   -0.3368   -0.9800 C.3       1 <0>         0.0671
     26 C19         7.7102    0.4355   -0.3184 C.2       1 <0>         0.0593
     27 C20         8.6168   -0.0705    0.5893 C.2       1 <0>         0.0007
     28 C21         8.8611    2.2650    0.0529 C.2       1 <0>         0.1557
     29 H1         -1.6575    0.0704    0.6142 H         1 <0>         0.0427
     30 H2         -1.9587   -0.9715   -0.7814 H         1 <0>         0.0427
     31 H3         -3.9528    0.8446    0.5223 H         1 <0>         0.0453
     32 H4         -4.2245   -0.2172   -0.8721 H         1 <0>         0.0453
     33 H5         -1.3409   -2.9857    0.5791 H         1 <0>         0.0325
     34 H6         -1.0643   -1.9751    1.9784 H         1 <0>         0.0325
     35 H7         -5.7663   -0.4076    1.7818 H         1 <0>         0.0656
     36 H8         -3.3851   -1.1259    1.7960 H         1 <0>         0.1220
     37 H9          0.8742   -0.4695    2.1134 H         1 <0>         0.0621
     38 H10         0.2004   -2.9604   -1.3403 H         1 <0>         0.0621
     39 H11         3.1340   -0.0767    1.4221 H         1 <0>         0.0636
     40 H12         2.5136   -2.5738   -2.0727 H         1 <0>         0.0636
     41 H13        -6.4339    1.9735    1.7768 H         1 <0>         0.0621
     42 H14        -7.0910   -0.5284   -1.6813 H         1 <0>         0.0621
     43 H15        -5.4943   -2.3610    0.6087 H         1 <0>         0.2103
     44 H16         4.5851   -1.5451   -1.6777 H         1 <0>         0.1548
     45 H17        -7.9977    3.6442    0.8461 H         1 <0>         0.0618
     46 H18        -8.6493    1.1408   -2.5848 H         1 <0>         0.0618
     47 H19        -9.1085    3.2330   -1.3338 H         1 <0>         0.0618
     48 H20         6.4184    0.0799   -1.9756 H         1 <0>         0.0423
     49 H21         6.9187   -1.3815   -1.1119 H         1 <0>         0.0423
     50 H22         8.6993   -1.0766    0.9759 H         1 <0>         0.0712
     51 H23        10.0625    3.8968    0.5277 H         1 <0>         0.1442
     52 H24         8.8121    4.2367   -0.6111 H         1 <0>         0.1442
@<TRIPOS>BOND
     1    1   27 1
     2    1   28 1
     3    2   11 1
     4    2   43 1
     5    3   24 2
     6    4    8 1
     7    4    9 1
     8    4   36 1
     9    5   16 1
    10    5   24 am
    11    5   44 1
    12    6   26 1
    13    6   28 2
    14    7   28 1
    15    7   51 1
    16    7   52 1
    17    8   10 1
    18    8   29 1
    19    8   30 1
    20    9   11 1
    21    9   31 1
    22    9   32 1
    23   10   12 1
    24   10   33 1
    25   10   34 1
    26   11   13 1
    27   11   35 1
    28   12   14 ar
    29   12   15 ar
    30   13   19 ar
    31   13   20 ar
    32   14   17 ar
    33   14   37 1
    34   15   18 ar
    35   15   38 1
    36   16   17 ar
    37   16   18 ar
    38   17   39 1
    39   18   40 1
    40   19   21 ar
    41   19   41 1
    42   20   22 ar
    43   20   42 1
    44   21   23 ar
    45   21   45 1
    46   22   23 ar
    47   22   46 1
    48   23   47 1
    49   24   25 1
    50   25   26 1
    51   25   48 1
    52   25   49 1
    53   26   27 2
    54   27   50 1
