@<TRIPOS>MOLECULE
DB09151
   30    32     0     0     0
SMALL
USER_CHARGES

@<TRIPOS>ATOM
      1 S1         -1.6063    1.5505    0.2496 S.3       1 <0>        -0.0671
      2 F1          3.3624    2.6908   -0.3456 F         1 <0>        -0.2035
      3 O1         -6.7099    0.5330    0.0309 O.3       1 <0>        -0.5067
      4 N1         -1.3750   -0.9920   -0.1166 N.2       1 <0>        -0.2390
      5 N2          4.9374    0.4554    0.1721 N.pl3     1 <0>        -0.3447
      6 C1          0.7466    0.2040    0.0841 C.ar      1 <0>         0.0100
      7 C2         -0.6940    0.1172    0.0532 C.2       1 <0>         0.1095
      8 C3         -3.0593    0.6350    0.0971 C.ar      1 <0>         0.0430
      9 C4         -2.7335   -0.7111   -0.0944 C.ar      1 <0>         0.0791
     10 C5          1.3753    1.4264   -0.1496 C.ar      1 <0>        -0.0149
     11 C6          1.5078   -0.9344    0.3461 C.ar      1 <0>        -0.0501
     12 C7          3.5296    0.3722    0.1407 C.ar      1 <0>         0.0626
     13 C8          2.7674    1.5106   -0.1211 C.ar      1 <0>         0.1447
     14 C9          2.8998   -0.8503    0.3743 C.ar      1 <0>        -0.0374
     15 C10        -4.3915    1.0762    0.1432 C.ar      1 <0>        -0.0043
     16 C11        -3.7802   -1.6468   -0.2455 C.ar      1 <0>        -0.0317
     17 C12        -5.4083    0.1298   -0.0087 C.ar      1 <0>         0.1180
     18 C13        -5.1088   -1.2145   -0.2008 C.ar      1 <0>        -0.0181
     19 C14         5.7882   -0.6381   -0.1822 C.3       1 <0>        -0.0023
     20 H1          0.8437    2.3434   -0.3843 H         1 <0>         0.0653
     21 H2          1.0394   -1.8971    0.5360 H         1 <0>         0.0625
     22 H3          3.4646   -1.7525    0.5901 H         1 <0>         0.0637
     23 H4         -4.6210    2.1272    0.2929 H         1 <0>         0.0666
     24 H5         -3.5574   -2.6993   -0.3960 H         1 <0>         0.0640
     25 H6         -5.9085   -1.9414   -0.3181 H         1 <0>         0.0655
     26 H7          5.3278    1.3907    0.1138 H         1 <0>         0.1458
     27 H8          5.5197   -1.0561   -1.1581 H         1 <0>         0.0425
     28 H9          5.7575   -1.4314    0.5712 H         1 <0>         0.0425
     29 H10         6.8251   -0.2925   -0.2449 H         1 <0>         0.0425
     30 H11        -6.7385    1.4951    0.1706 H         1 <0>         0.2921
@<TRIPOS>BOND
     1    1    7 1
     2    1    8 1
     3    2   13 1
     4    3   17 1
     5    3   30 1
     6    4    7 2
     7    4    9 1
     8    5   12 1
     9    5   19 1
    10    5   26 1
    11    6    7 1
    12    6   10 ar
    13    6   11 ar
    14    8    9 ar
    15    8   15 ar
    16    9   16 ar
    17   10   13 ar
    18   10   20 1
    19   11   14 ar
    20   11   21 1
    21   12   13 ar
    22   12   14 ar
    23   14   22 1
    24   15   17 ar
    25   15   23 1
    26   16   18 ar
    27   16   24 1
    28   17   18 ar
    29   18   25 1
    30   19   27 1
    31   19   28 1
    32   19   29 1
