@<TRIPOS>MOLECULE
DB09034
   55    59     0     0     0
SMALL
USER_CHARGES

@<TRIPOS>ATOM
      1 Cl1        -7.9065   -1.7539    3.0324 Cl        1 <0>        -0.0835
      2 O1         -3.9742   -0.0153   -0.8667 O.3       1 <0>        -0.4244
      3 O2          2.9315    1.3929   -1.9149 O.2       1 <0>        -0.2699
      4 N1          0.9386    0.8488   -0.7997 N.am      1 <0>        -0.2931
      5 N2         -1.7527   -0.7017   -1.0900 N.am      1 <0>        -0.2835
      6 N3         -3.2627   -1.5573    0.6341 N.2       1 <0>        -0.1953
      7 N4          3.6653    1.2369    1.3871 N.pl3     1 <0>        -0.1496
      8 N5          3.7306    1.3924    2.7193 N.2       1 <0>        -0.1556
      9 N6          3.5331    2.3309    0.6200 N.2       1 <0>        -0.1556
     10 C1          0.1822    1.9020   -1.5092 C.3       1 <0>         0.0250
     11 C2         -1.3185    1.6261   -1.7351 C.3       1 <0>        -0.0186
     12 C3         -1.6205    0.2098   -2.2348 C.3       1 <0>         0.0180
     13 C4          0.2343    0.0130    0.1899 C.3       1 <0>         0.0311
     14 C5         -0.4962   -1.1514   -0.4838 C.3       1 <0>         0.0321
     15 C6          0.3609    3.2453   -0.7927 C.3       1 <0>        -0.0464
     16 C7          2.3073    0.7169   -1.0977 C.2       1 <0>         0.2490
     17 C8         -2.9649   -0.8033   -0.4011 C.2       1 <0>         0.2912
     18 C9          3.0834   -0.3049   -0.3861 C.ar      1 <0>         0.0642
     19 C10         3.7309   -0.0241    0.8171 C.ar      1 <0>         0.0982
     20 C11         3.1653   -1.5822   -0.9405 C.ar      1 <0>        -0.0446
     21 C12        -4.5783   -1.2491    0.8822 C.ar      1 <0>         0.1126
     22 C13        -5.0173   -0.3054   -0.0347 C.ar      1 <0>         0.1571
     23 C14         3.8943   -2.5789   -0.2916 C.ar      1 <0>        -0.0496
     24 C15         4.4601   -1.0207    1.4659 C.ar      1 <0>        -0.0336
     25 C16         4.5416   -2.2981    0.9116 C.ar      1 <0>        -0.0567
     26 C17        -5.4733   -1.7160    1.8554 C.ar      1 <0>        -0.0142
     27 C18        -6.2999    0.2278   -0.0695 C.ar      1 <0>        -0.0157
     28 C19         3.9818   -3.9447   -0.8840 C.3       1 <0>        -0.0397
     29 C20        -6.7777   -1.2010    1.8522 C.ar      1 <0>         0.0432
     30 C21        -7.1804   -0.2486    0.9079 C.ar      1 <0>        -0.0398
     31 C22         3.6312    2.7205    2.8243 C.2       1 <0>         0.0697
     32 C23         3.5110    3.2906    1.5490 C.2       1 <0>         0.0697
     33 H1          0.6379    2.0062   -2.5028 H         1 <0>         0.0498
     34 H2         -1.6776    2.3410   -2.4871 H         1 <0>         0.0298
     35 H3         -1.8844    1.8415   -0.8200 H         1 <0>         0.0298
     36 H4         -2.5456    0.2131   -2.8239 H         1 <0>         0.0466
     37 H5         -0.8360   -0.1417   -2.9162 H         1 <0>         0.0466
     38 H6         -0.4459    0.6504    0.7662 H         1 <0>         0.0480
     39 H7          0.9501   -0.3970    0.9061 H         1 <0>         0.0480
     40 H8          0.1304   -1.6213   -1.2505 H         1 <0>         0.0480
     41 H9         -0.7003   -1.9266    0.2647 H         1 <0>         0.0480
     42 H10         0.0166    3.1906    0.2456 H         1 <0>         0.0248
     43 H11        -0.2021    4.0364   -1.2993 H         1 <0>         0.0248
     44 H12         1.4118    3.5484   -0.7807 H         1 <0>         0.0248
     45 H13         2.6615   -1.8019   -1.8792 H         1 <0>         0.0628
     46 H14         4.9860   -0.8335    2.3988 H         1 <0>         0.0640
     47 H15         5.1132   -3.0660    1.4261 H         1 <0>         0.0621
     48 H16        -5.1577   -2.4546    2.5855 H         1 <0>         0.0654
     49 H17        -6.6010    0.9640   -0.8041 H         1 <0>         0.0655
     50 H18         3.1342   -4.5527   -0.5525 H         1 <0>         0.0278
     51 H19         3.9763   -3.8999   -1.9784 H         1 <0>         0.0278
     52 H20         4.9093   -4.4469   -0.5888 H         1 <0>         0.0278
     53 H21        -8.1973    0.1390    0.9217 H         1 <0>         0.0633
     54 H22         3.6502    3.1891    3.7967 H         1 <0>         0.0864
     55 H23         3.4103    4.3247    1.2558 H         1 <0>         0.0864
@<TRIPOS>BOND
     1    1   29 1
     2    2   17 2
     3    2   22 1
     4    3   16 2
     5    4   10 1
     6    4   13 1
     7    4   16 am
     8    5   12 1
     9    5   14 1
    10    5   17 am
    11    6   17 1
    12    6   21 1
    13    7    8 1
    14    7    9 2
    15    7   19 1
    16    8   31 1
    17    9   32 1
    18   10   11 1
    19   10   15 1
    20   10   33 1
    21   11   12 1
    22   11   34 1
    23   11   35 1
    24   12   36 1
    25   12   37 1
    26   13   14 1
    27   13   38 1
    28   13   39 1
    29   14   40 1
    30   14   41 1
    31   15   42 1
    32   15   43 1
    33   15   44 1
    34   16   18 1
    35   18   19 ar
    36   18   20 ar
    37   19   24 ar
    38   20   23 ar
    39   20   45 1
    40   21   22 ar
    41   21   26 ar
    42   22   27 ar
    43   23   25 ar
    44   23   28 1
    45   24   25 ar
    46   24   46 1
    47   25   47 1
    48   26   29 ar
    49   26   48 1
    50   27   30 ar
    51   27   49 1
    52   28   50 1
    53   28   51 1
    54   28   52 1
    55   29   30 ar
    56   30   53 1
    57   31   32 2
    58   31   54 1
    59   32   55 1
