@<TRIPOS>MOLECULE
DB09086
   24    24     0     0     0
SMALL
USER_CHARGES

@<TRIPOS>ATOM
      1 O1          2.3702    1.2215    0.8299 O.3       1 <0>        -0.4915
      2 O2          3.3400   -1.2018   -0.1242 O.3       1 <0>        -0.5033
      3 C1         -0.7345   -0.6751    0.4754 C.ar      1 <0>        -0.0400
      4 C2         -2.1986   -0.4900    0.6892 C.3       1 <0>        -0.0096
      5 C3          0.1483    0.3684    0.7540 C.ar      1 <0>        -0.0128
      6 C4          1.5179    0.1955    0.5534 C.ar      1 <0>         0.1615
      7 C5         -0.2477   -1.8914   -0.0038 C.ar      1 <0>        -0.0546
      8 C6          2.0044   -1.0208    0.0743 C.ar      1 <0>         0.1585
      9 C7          1.1216   -2.0642   -0.2044 C.ar      1 <0>        -0.0163
     10 C8         -2.9101    0.0424   -0.5277 C.2       1 <0>        -0.0868
     11 C9          2.6555    2.1312   -0.2309 C.3       1 <0>         0.0790
     12 C10        -3.5476    1.2178   -0.5719 C.2       1 <0>        -0.1023
     13 H1         -2.6578   -1.4477    0.9674 H         1 <0>         0.0355
     14 H2         -2.3638    0.1662    1.5541 H         1 <0>         0.0355
     15 H3         -0.2253    1.3190    1.1274 H         1 <0>         0.0658
     16 H4         -0.9249   -2.7119   -0.2261 H         1 <0>         0.0622
     17 H5          1.4873   -3.0168   -0.5783 H         1 <0>         0.0655
     18 H6         -2.9136   -0.5826   -1.4175 H         1 <0>         0.0570
     19 H7          1.7406    2.6335   -0.5613 H         1 <0>         0.0660
     20 H8          3.1222    1.6088   -1.0721 H         1 <0>         0.0660
     21 H9          3.3531    2.8855    0.1428 H         1 <0>         0.0660
     22 H10         3.4911   -2.1025   -0.4587 H         1 <0>         0.2923
     23 H11        -4.0471    1.5381   -1.4796 H         1 <0>         0.0532
     24 H12        -3.5814    1.8769    0.2885 H         1 <0>         0.0532
@<TRIPOS>BOND
     1    1    6 1
     2    1   11 1
     3    2    8 1
     4    2   22 1
     5    3    4 1
     6    3    5 ar
     7    3    7 ar
     8    4   10 1
     9    4   13 1
    10    4   14 1
    11    5    6 ar
    12    5   15 1
    13    6    8 ar
    14    7    9 ar
    15    7   16 1
    16    8    9 ar
    17    9   17 1
    18   10   12 2
    19   10   18 1
    20   11   19 1
    21   11   20 1
    22   11   21 1
    23   12   23 1
    24   12   24 1
