@<TRIPOS>MOLECULE
DB09319
   61    65     0     0     0
SMALL
USER_CHARGES

@<TRIPOS>ATOM
      1 S1          3.4989    0.3228   -1.0074 S.3       1 <0>        -0.1273
      2 O1          4.1994   -3.1395    1.6257 O.2       1 <0>        -0.2734
      3 O2          7.9031   -0.3163    0.6352 O.3       1 <0>        -0.4793
      4 O3          7.3724   -2.3028   -0.3489 O.2       1 <0>        -0.2489
      5 O4          0.3482   -1.3879   -1.5703 O.2       1 <0>        -0.2745
      6 O5         -2.8349   -0.3318    1.0656 O.3       1 <0>        -0.4251
      7 O6         -2.2939   -1.4929   -0.8879 O.2       1 <0>        -0.2492
      8 N1          4.7681   -1.8031   -0.2347 N.am      1 <0>        -0.2708
      9 N2          1.6406   -1.7262    0.3247 N.am      1 <0>        -0.3008
     10 C1          3.7021   -1.4866   -1.1897 C.3       1 <0>         0.1005
     11 C2          5.3041    0.5227   -0.5942 C.3       1 <0>         0.0417
     12 C3          5.6298   -0.7376    0.2359 C.3       1 <0>         0.1379
     13 C4          2.7742   -2.3747   -0.3493 C.3       1 <0>         0.1277
     14 C5          3.9979   -2.6015    0.5607 C.2       1 <0>         0.2402
     15 C6          6.0808    0.6349   -1.9131 C.3       1 <0>        -0.0484
     16 C7          5.4870    1.7973    0.2320 C.3       1 <0>        -0.0484
     17 C8          7.0382   -1.2283    0.1276 C.2       1 <0>         0.3269
     18 C9          0.5057   -1.2809   -0.3551 C.2       1 <0>         0.2320
     19 C10        -0.5302   -0.6207    0.5547 C.3       1 <0>         0.1576
     20 C11        -0.2198    0.8606    0.6844 C.ar      1 <0>        -0.0249
     21 C12        -1.9675   -0.8743    0.1174 C.2       1 <0>         0.3288
     22 C13        -8.4463    0.5307   -0.7398 C.3       1 <0>        -0.0450
     23 C14        -7.0699    1.0788   -1.1457 C.3       1 <0>        -0.0270
     24 C15        -8.2408   -0.9430   -0.3580 C.3       1 <0>        -0.0271
     25 C16        -6.1627    0.2271   -0.3153 C.ar      1 <0>        -0.0407
     26 C17        -6.8274   -0.9207    0.1319 C.ar      1 <0>        -0.0439
     27 C18        -4.8271    0.4402   -0.0190 C.ar      1 <0>        -0.0158
     28 C19        -4.1596   -0.5151    0.7503 C.ar      1 <0>         0.1319
     29 C20         0.6138    1.2839    1.7014 C.ar      1 <0>        -0.0573
     30 C21        -0.7794    1.7441   -0.2182 C.ar      1 <0>        -0.0573
     31 C22        -6.1702   -1.8792    0.8845 C.ar      1 <0>        -0.0548
     32 C23        -4.8262   -1.6666    1.1988 C.ar      1 <0>        -0.0190
     33 C24         0.8991    2.6441    1.8204 C.ar      1 <0>        -0.0615
     34 C25        -0.4940    3.1042   -0.0991 C.ar      1 <0>        -0.0615
     35 C26         0.3452    3.5541    0.9203 C.ar      1 <0>        -0.0617
     36 H1          3.9189   -1.8419   -2.2011 H         1 <0>         0.0640
     37 H2          5.4079   -0.5894    1.3014 H         1 <0>         0.0631
     38 H3          2.4620   -3.2961   -0.8554 H         1 <0>         0.0622
     39 H4          5.7174    1.4717   -2.5216 H         1 <0>         0.0244
     40 H5          7.1456    0.8184   -1.7321 H         1 <0>         0.0244
     41 H6          6.0053   -0.2759   -2.5176 H         1 <0>         0.0244
     42 H7          4.9127    1.7637    1.1653 H         1 <0>         0.0244
     43 H8          6.5381    1.9473    0.5009 H         1 <0>         0.0244
     44 H9          5.1668    2.6860   -0.3247 H         1 <0>         0.0244
     45 H10         1.6744   -1.5882    1.3320 H         1 <0>         0.1496
     46 H11        -0.4542   -1.0993    1.5422 H         1 <0>         0.0559
     47 H12         8.8339   -0.6196    0.5725 H         1 <0>         0.2951
     48 H13        -8.8066    1.0822    0.1400 H         1 <0>         0.0272
     49 H14        -9.1955    0.6577   -1.5275 H         1 <0>         0.0272
     50 H15        -6.9788    2.1428   -0.9101 H         1 <0>         0.0313
     51 H16        -6.8751    0.9107   -2.2098 H         1 <0>         0.0313
     52 H17        -8.3259   -1.5943   -1.2340 H         1 <0>         0.0313
     53 H18        -8.9480   -1.2573    0.4146 H         1 <0>         0.0313
     54 H19        -4.3125    1.3262   -0.3767 H         1 <0>         0.0657
     55 H20         1.0500    0.5838    2.4074 H         1 <0>         0.0621
     56 H21        -1.4214    1.4160   -1.0297 H         1 <0>         0.0621
     57 H22        -6.6801   -2.7748    1.2225 H         1 <0>         0.0622
     58 H23        -4.2938   -2.4057    1.7923 H         1 <0>         0.0654
     59 H24         1.5534    2.9942    2.6133 H         1 <0>         0.0618
     60 H25        -0.9219    3.8127   -0.8023 H         1 <0>         0.0618
     61 H26         0.5686    4.6130    1.0121 H         1 <0>         0.0618
@<TRIPOS>BOND
     1    1   10 1
     2    1   11 1
     3    2   14 2
     4    3   17 1
     5    3   47 1
     6    4   17 2
     7    5   18 2
     8    6   21 1
     9    6   28 1
    10    7   21 2
    11    8   10 1
    12    8   12 1
    13    8   14 am
    14    9   13 1
    15    9   18 am
    16    9   45 1
    17   10   13 1
    18   10   36 1
    19   11   12 1
    20   11   15 1
    21   11   16 1
    22   12   17 1
    23   12   37 1
    24   13   14 1
    25   13   38 1
    26   15   39 1
    27   15   40 1
    28   15   41 1
    29   16   42 1
    30   16   43 1
    31   16   44 1
    32   18   19 1
    33   19   20 1
    34   19   21 1
    35   19   46 1
    36   20   29 ar
    37   20   30 ar
    38   22   23 1
    39   22   24 1
    40   22   48 1
    41   22   49 1
    42   23   25 1
    43   23   50 1
    44   23   51 1
    45   24   26 1
    46   24   52 1
    47   24   53 1
    48   25   26 ar
    49   25   27 ar
    50   26   31 ar
    51   27   28 ar
    52   27   54 1
    53   28   32 ar
    54   29   33 ar
    55   29   55 1
    56   30   34 ar
    57   30   56 1
    58   31   32 ar
    59   31   57 1
    60   32   58 1
    61   33   35 ar
    62   33   59 1
    63   34   35 ar
    64   34   60 1
    65   35   61 1
