@<TRIPOS>MOLECULE
DB09282
   31    32     0     0     0
SMALL
USER_CHARGES

@<TRIPOS>ATOM
      1 O1          5.2812    0.0543   -0.0178 O.3       1 <0>        -0.3763
      2 O2         -0.5504   -0.1976    1.7594 O.3       1 <0>        -0.2778
      3 O3         -4.4162    0.8930    0.0015 O.3       1 <0>        -0.4874
      4 O4         -2.7322    2.0950    0.2780 O.3       1 <0>        -0.8334
      5 N1          2.4505   -0.0768   -0.1780 N.pl3     1 <0>        -0.1062
      6 N2          1.0787   -0.1285    0.3743 N.pl3     1 <0>         0.0637
      7 N3          0.8530   -0.1512    1.6668 N.2       1 <0>         0.2326
      8 N4         -2.4091   -0.2388    0.2877 N.2       1 <0>        -0.1839
      9 C1          3.2441   -1.2382    0.2389 C.3       1 <0>         0.0929
     10 C2          3.1355    1.1663    0.1940 C.3       1 <0>         0.0929
     11 C3          4.6301   -1.1609   -0.3941 C.3       1 <0>         0.0686
     12 C4          4.5236    1.1906   -0.4386 C.3       1 <0>         0.0686
     13 C5         -0.0422   -0.1556   -0.4070 C.2       1 <0>         0.2976
     14 C6         -1.0738   -0.1990    0.4915 C.2       1 <0>         0.3264
     15 C7         -3.0607    0.8956    0.2077 C.2       1 <0>         0.1507
     16 C8         -5.0888   -0.3719   -0.1218 C.3       1 <0>         0.0873
     17 C9         -6.5683   -0.1258   -0.3275 C.3       1 <0>        -0.0307
     18 H1          2.7503   -2.1628   -0.0793 H         1 <0>         0.0542
     19 H2          3.3409   -1.2641    1.3314 H         1 <0>         0.0542
     20 H3          3.2263    1.2408    1.2847 H         1 <0>         0.0542
     21 H4          2.5607    2.0301   -0.1575 H         1 <0>         0.0542
     22 H5          5.2484   -1.9924   -0.0411 H         1 <0>         0.0577
     23 H6          4.5804   -1.2253   -1.4879 H         1 <0>         0.0577
     24 H7          4.4697    1.2087   -1.5340 H         1 <0>         0.0577
     25 H8          5.0636    2.0873   -0.1186 H         1 <0>         0.0577
     26 H9         -0.0428   -0.1424   -1.4854 H         1 <0>         0.1493
     27 H10        -4.6819   -0.9171   -0.9807 H         1 <0>         0.0694
     28 H11        -4.9358   -0.9563    0.7920 H         1 <0>         0.0694
     29 H12        -7.1120   -1.0696   -0.4258 H         1 <0>         0.0262
     30 H13        -6.9856    0.4370    0.5139 H         1 <0>         0.0262
     31 H14        -6.7373    0.4754   -1.2268 H         1 <0>         0.0262
@<TRIPOS>BOND
     1    1   11 1
     2    1   12 1
     3    2    7 1
     4    2   14 1
     5    3   15 1
     6    3   16 1
     7    4   15 1
     8    5    6 1
     9    5    9 1
    10    5   10 1
    11    6    7 2
    12    6   13 1
    13    8   14 1
    14    8   15 2
    15    9   11 1
    16    9   18 1
    17    9   19 1
    18   10   12 1
    19   10   20 1
    20   10   21 1
    21   11   22 1
    22   11   23 1
    23   12   24 1
    24   12   25 1
    25   13   14 2
    26   13   26 1
    27   16   17 1
    28   16   27 1
    29   16   28 1
    30   17   29 1
    31   17   30 1
    32   17   31 1
