@<TRIPOS>MOLECULE
DB09352
   24    24     0     0     0
SMALL
USER_CHARGES

@<TRIPOS>ATOM
      1 O1         -4.3529   -0.3980   -0.4318 O.3       1 <0>        -0.5068
      2 N1          3.4009    0.5375    0.1619 N.3       1 <0>        -0.3272
      3 C1          2.0319    0.2395   -0.2694 C.3       1 <0>         0.0060
      4 C2          1.0572    0.4975    0.8952 C.3       1 <0>        -0.0127
      5 C3         -0.3838    0.2588    0.5413 C.ar      1 <0>        -0.0457
      6 C4          1.9889   -1.2061   -0.7647 C.3       1 <0>        -0.0496
      7 C5         -1.1479    1.3029    0.0363 C.ar      1 <0>        -0.0551
      8 C6         -0.9346   -1.0030    0.7245 C.ar      1 <0>        -0.0551
      9 C7         -2.4857    1.0813   -0.2913 C.ar      1 <0>        -0.0199
     10 C8         -2.2723   -1.2247    0.3968 C.ar      1 <0>        -0.0199
     11 C9         -3.0478   -0.1826   -0.1109 C.ar      1 <0>         0.1169
     12 H1          1.7835    0.9021   -1.1075 H         1 <0>         0.0459
     13 H2          1.1686    1.5322    1.2486 H         1 <0>         0.0328
     14 H3          1.3247   -0.1291    1.7578 H         1 <0>         0.0328
     15 H4          1.0322   -1.4377   -1.2427 H         1 <0>         0.0245
     16 H5          2.1507   -1.9182    0.0523 H         1 <0>         0.0245
     17 H6          2.7636   -1.3837   -1.5202 H         1 <0>         0.0245
     18 H7         -0.7193    2.2905   -0.1101 H         1 <0>         0.0621
     19 H8         -0.3428   -1.8220    1.1237 H         1 <0>         0.0621
     20 H9          3.4639    1.5136    0.4489 H         1 <0>         0.1185
     21 H10         4.0405    0.4283   -0.6242 H         1 <0>         0.1185
     22 H11        -3.0789    1.9014   -0.6869 H         1 <0>         0.0654
     23 H12        -2.7047   -2.2110    0.5403 H         1 <0>         0.0654
     24 H13        -4.7358    0.4306   -0.7679 H         1 <0>         0.2921
@<TRIPOS>BOND
     1    1   11 1
     2    1   24 1
     3    2    3 1
     4    2   20 1
     5    2   21 1
     6    3    4 1
     7    3    6 1
     8    3   12 1
     9    4    5 1
    10    4   13 1
    11    4   14 1
    12    5    7 ar
    13    5    8 ar
    14    6   15 1
    15    6   16 1
    16    6   17 1
    17    7    9 ar
    18    7   18 1
    19    8   10 ar
    20    8   19 1
    21    9   11 ar
    22    9   22 1
    23   10   11 ar
    24   10   23 1
