@<TRIPOS>MOLECULE
DB09220
   24    24     0     0     0
SMALL
USER_CHARGES

@<TRIPOS>ATOM
      1 O1          2.9104    0.9437   -0.2206 O.3       1 <0>        -0.2150
      2 O2         -0.1786   -2.0665    0.9169 O.2       1 <0>        -0.2701
      3 O3          4.3434    0.9715    1.4667 O.3       1 <0>        -0.5338
      4 O4          3.9093    2.8864    0.4099 O.2       1 <0>         0.0934
      5 N1          0.5409   -0.5963   -0.7255 N.am      1 <0>        -0.3078
      6 N2         -4.1038   -0.6567    0.5452 N.ar      1 <0>        -0.2625
      7 N3          3.7954    1.6763    0.6183 N.pl3     1 <0>         0.2843
      8 C1          1.8787   -1.1285   -0.8525 C.3       1 <0>         0.0530
      9 C2          2.8447   -0.4408    0.0950 C.3       1 <0>         0.1822
     10 C3         -0.4153   -1.1053    0.1623 C.2       1 <0>         0.2456
     11 C4         -1.7247   -0.4768    0.1548 C.ar      1 <0>         0.0547
     12 C5         -1.8806    0.8505   -0.2291 C.ar      1 <0>        -0.0467
     13 C6         -2.8577   -1.1808    0.5297 C.ar      1 <0>         0.0397
     14 C7         -3.1469    1.4252   -0.2261 C.ar      1 <0>        -0.0429
     15 C8         -4.2163    0.6361    0.1659 C.ar      1 <0>         0.0276
     16 H1          2.1818   -0.9626   -1.8915 H         1 <0>         0.0498
     17 H2          1.8586   -2.2061   -0.6602 H         1 <0>         0.0498
     18 H3          3.8325   -0.9023   -0.0264 H         1 <0>         0.0786
     19 H4          2.4958   -0.5777    1.1265 H         1 <0>         0.0786
     20 H5          0.2951    0.1570   -1.3589 H         1 <0>         0.1491
     21 H6         -1.0394    1.4775   -0.5091 H         1 <0>         0.0626
     22 H7         -2.8079   -2.2212    0.8365 H         1 <0>         0.0837
     23 H8         -3.2917    2.4599   -0.5149 H         1 <0>         0.0633
     24 H9         -5.2240    1.0373    0.1872 H         1 <0>         0.0829
@<TRIPOS>BOND
     1    1    7 1
     2    1    9 1
     3    2   10 2
     4    3    7 1
     5    4    7 2
     6    5    8 1
     7    5   10 am
     8    5   20 1
     9    6   13 ar
    10    6   15 ar
    11    8    9 1
    12    8   16 1
    13    8   17 1
    14    9   18 1
    15    9   19 1
    16   10   11 1
    17   11   12 ar
    18   11   13 ar
    19   12   14 ar
    20   12   21 1
    21   13   22 1
    22   14   15 ar
    23   14   23 1
    24   15   24 1
