@<TRIPOS>MOLECULE
DB09353
    8     8     0     0     0
SMALL
NO_CHARGES

@<TRIPOS>ATOM
      1 S1          0.0415    2.3160    0.5082 S.3       1 <0>         0.0000
      2 S2          1.6671    1.6083   -0.5080 S.3       1 <0>         0.0000
      3 S3         -1.6085    1.6669   -0.5085 S.3       1 <0>         0.0000
      4 S4          2.3160   -0.0416    0.5082 S.3       1 <0>         0.0000
      5 S5         -2.3161    0.0415    0.5084 S.3       1 <0>         0.0000
      6 S6          1.6083   -1.6668   -0.5086 S.3       1 <0>         0.0000
      7 S7         -1.6672   -1.6084   -0.5080 S.3       1 <0>         0.0000
      8 S8         -0.0412   -2.3160    0.5083 S.3       1 <0>         0.0000
@<TRIPOS>BOND
     1    1    2 1
     2    1    3 1
     3    2    4 1
     4    3    5 1
     5    4    6 1
     6    5    7 1
     7    6    8 1
     8    7    8 1
