@<TRIPOS>MOLECULE
DB09148
   52    53     0     0     0
SMALL
USER_CHARGES

@<TRIPOS>ATOM
      1 F1         -4.0259   -3.4172   -0.3329 F         1 <0>        -0.2467
      2 O1         -5.2921    1.0844    0.3422 O.3       1 <0>        -0.3742
      3 O2         -3.0512    1.7724   -1.1596 O.3       1 <0>        -0.4897
      4 O3         -6.0348   -1.6095    0.2045 O.3       1 <0>        -0.3750
      5 N1          8.6136   -1.0298    0.3472 N.pl3     1 <0>        -0.3469
      6 C1         -5.1800    2.3783   -0.2381 C.3       1 <0>         0.0818
      7 C2         -3.7127    2.7445   -0.3513 C.3       1 <0>         0.1128
      8 C3          0.9520    1.0972   -0.3932 C.ar      1 <0>        -0.0248
      9 C4         -6.6503    0.6883    0.4726 C.3       1 <0>         0.0711
     10 C5         -1.7325    1.5504   -0.9071 C.ar      1 <0>         0.1206
     11 C6         -6.7044   -0.7034    1.0729 C.3       1 <0>         0.0711
     12 C7          4.5306   -0.3765   -0.3893 C.ar      1 <0>        -0.0249
     13 C8          0.1724    0.0643   -0.8872 C.ar      1 <0>        -0.0511
     14 C9          0.4174    2.3521   -0.1507 C.ar      1 <0>        -0.0511
     15 C10        -1.1792    0.2923   -1.1462 C.ar      1 <0>        -0.0194
     16 C11        -0.9342    2.5803   -0.4094 C.ar      1 <0>        -0.0194
     17 C12         2.3799    0.8571   -0.1191 C.2       1 <0>        -0.0540
     18 C13         3.1167   -0.1504   -0.6444 C.2       1 <0>        -0.0540
     19 C14         7.2426   -0.8105    0.0999 C.ar      1 <0>         0.0269
     20 C15         5.2821   -1.1552   -1.2694 C.ar      1 <0>        -0.0529
     21 C16         5.1348    0.1851    0.7353 C.ar      1 <0>        -0.0529
     22 C17         6.6382   -1.3721   -1.0250 C.ar      1 <0>        -0.0403
     23 C18         6.4908   -0.0318    0.9798 C.ar      1 <0>        -0.0403
     24 C19        -6.0544   -2.9339    0.7188 C.3       1 <0>         0.0759
     25 C20        -5.3167   -3.8400   -0.2411 C.3       1 <0>         0.1134
     26 C21         9.4417   -0.0821    1.0267 C.3       1 <0>        -0.0024
     27 H1         -5.7038    3.1145    0.3815 H         1 <0>         0.0594
     28 H2         -5.6318    2.3579   -1.2366 H         1 <0>         0.0594
     29 H3         -3.6078    3.7335   -0.8100 H         1 <0>         0.0720
     30 H4         -3.2977    2.7574    0.6649 H         1 <0>         0.0720
     31 H5         -7.1837    1.3943    1.1185 H         1 <0>         0.0583
     32 H6         -7.1162    0.6802   -0.5197 H         1 <0>         0.0583
     33 H7         -7.7471   -1.0132    1.2025 H         1 <0>         0.0583
     34 H8         -6.2003   -0.7062    2.0462 H         1 <0>         0.0583
     35 H9          0.5538   -0.9358   -1.0661 H         1 <0>         0.0625
     36 H10         1.0280    3.1666    0.2300 H         1 <0>         0.0625
     37 H11        -1.7981   -0.5148   -1.5284 H         1 <0>         0.0654
     38 H12        -1.3187    3.5809   -0.2356 H         1 <0>         0.0654
     39 H13         2.8352    1.5936    0.5373 H         1 <0>         0.0624
     40 H14         2.6704   -0.8526   -1.3432 H         1 <0>         0.0624
     41 H15         4.8293   -1.6002   -2.1522 H         1 <0>         0.0624
     42 H16         4.5863    0.7775    1.4615 H         1 <0>         0.0624
     43 H17         7.2129   -1.9802   -1.7189 H         1 <0>         0.0636
     44 H18         6.9298    0.4080    1.8708 H         1 <0>         0.0636
     45 H19        -5.5542   -2.9491    1.6934 H         1 <0>         0.0585
     46 H20        -7.0891   -3.2743    0.8343 H         1 <0>         0.0585
     47 H21         9.0736   -1.7055   -0.2546 H         1 <0>         0.1457
     48 H22        -5.3130   -4.8760    0.1072 H         1 <0>         0.0638
     49 H23        -5.7459   -3.7917   -1.2459 H         1 <0>         0.0638
     50 H24         9.3585    0.9151    0.5822 H         1 <0>         0.0425
     51 H25        10.4898   -0.3901    0.9538 H         1 <0>         0.0425
     52 H26         9.1955   -0.0242    2.0916 H         1 <0>         0.0425
@<TRIPOS>BOND
     1    1   25 1
     2    2    6 1
     3    2    9 1
     4    3    7 1
     5    3   10 1
     6    4   11 1
     7    4   24 1
     8    5   19 1
     9    5   26 1
    10    5   47 1
    11    6    7 1
    12    6   27 1
    13    6   28 1
    14    7   29 1
    15    7   30 1
    16    8   13 ar
    17    8   14 ar
    18    8   17 1
    19    9   11 1
    20    9   31 1
    21    9   32 1
    22   10   15 ar
    23   10   16 ar
    24   11   33 1
    25   11   34 1
    26   12   18 1
    27   12   20 ar
    28   12   21 ar
    29   13   15 ar
    30   13   35 1
    31   14   16 ar
    32   14   36 1
    33   15   37 1
    34   16   38 1
    35   17   18 2
    36   17   39 1
    37   18   40 1
    38   19   22 ar
    39   19   23 ar
    40   20   22 ar
    41   20   41 1
    42   21   23 ar
    43   21   42 1
    44   22   43 1
    45   23   44 1
    46   24   25 1
    47   24   45 1
    48   24   46 1
    49   25   48 1
    50   25   49 1
    51   26   50 1
    52   26   51 1
    53   26   52 1
