@<TRIPOS>MOLECULE
DB09210
   20    20     0     0     0
SMALL
USER_CHARGES

@<TRIPOS>ATOM
      1 O1         -0.7565    2.3740   -0.5891 O.2       1 <0>        -0.2756
      2 O2          1.7340    1.0240    1.4476 O.2       1 <0>        -0.2743
      3 N1         -0.1470    0.1103   -0.3756 N.am      1 <0>        -0.2927
      4 N2          3.3697   -0.1402    0.3270 N.am      1 <0>        -0.3280
      5 C1         -0.7602   -1.1005    0.1169 C.3       1 <0>         0.0156
      6 C2         -2.2418   -0.7897    0.0450 C.3       1 <0>        -0.0289
      7 C3         -2.3104    0.7177    0.2589 C.3       1 <0>         0.0256
      8 C4         -0.9984    1.2105   -0.3054 C.2       1 <0>         0.2160
      9 C5          1.2475    0.1522   -0.7585 C.3       1 <0>         0.0907
     10 C6          2.1047    0.3903    0.4632 C.2       1 <0>         0.2279
     11 H1         -0.4272   -1.2657    1.1467 H         1 <0>         0.0465
     12 H2         -0.4885   -1.9566   -0.5070 H         1 <0>         0.0465
     13 H3         -2.8305   -1.3520    0.7750 H         1 <0>         0.0285
     14 H4         -2.6236   -1.0328   -0.9547 H         1 <0>         0.0285
     15 H5         -2.3517    0.9694    1.3232 H         1 <0>         0.0359
     16 H6         -3.1570    1.1655   -0.2670 H         1 <0>         0.0359
     17 H7          1.5092   -0.7815   -1.2654 H         1 <0>         0.0560
     18 H8          1.4065    0.9914   -1.4439 H         1 <0>         0.0560
     19 H9          4.0573   -0.0429    1.0668 H         1 <0>         0.1450
     20 H10         3.6639   -0.6435   -0.5038 H         1 <0>         0.1450
@<TRIPOS>BOND
     1    1    8 2
     2    2   10 2
     3    3    5 1
     4    3    8 am
     5    3    9 1
     6    4   10 am
     7    4   19 1
     8    4   20 1
     9    5    6 1
    10    5   11 1
    11    5   12 1
    12    6    7 1
    13    6   13 1
    14    6   14 1
    15    7    8 1
    16    7   15 1
    17    7   16 1
    18    9   10 1
    19    9   17 1
    20    9   18 1
