@<TRIPOS>MOLECULE
DB09274
   55    58     0     0     0
SMALL
USER_CHARGES

@<TRIPOS>ATOM
      1 O1         -1.4525    0.7385    1.8096 O.3       1 <0>        -0.2196
      2 O2         -0.9159    2.0402   -0.7323 O.3       1 <0>        -0.3144
      3 O3          0.7671    0.5389   -0.1428 O.3       1 <0>        -0.3090
      4 O4         -0.7647    2.0124    1.6227 O.3       1 <0>        -0.1989
      5 O5          2.5902   -0.8032    0.3845 O.3       1 <0>        -0.4347
      6 O6          3.1001    0.2993   -1.5759 O.2       1 <0>        -0.2508
      7 O7          8.1774    0.9610   -1.0714 O.3       1 <0>        -0.4806
      8 O8          7.5242   -0.2260    0.7524 O.2       1 <0>        -0.2510
      9 C1         -1.5465    0.0321    0.5445 C.3       1 <0>         0.1613
     10 C2         -3.0609    0.1110    0.1710 C.3       1 <0>        -0.0010
     11 C3         -1.1141   -1.4273    0.8561 C.3       1 <0>         0.0045
     12 C4         -3.4595   -0.9087   -0.9288 C.3       1 <0>        -0.0381
     13 C5         -0.6092    0.6554   -0.5220 C.3       1 <0>         0.1986
     14 C6         -1.5353   -2.4030   -0.2546 C.3       1 <0>        -0.0466
     15 C7          0.4083   -1.4770    1.1543 C.3       1 <0>         0.0247
     16 C8         -3.5356    1.5343   -0.2053 C.3       1 <0>        -0.0421
     17 C9         -3.0281   -2.3245   -0.5360 C.3       1 <0>        -0.0498
     18 C10        -1.3383    2.6623    0.4846 C.3       1 <0>         0.2027
     19 C11        -2.8765    2.6885    0.5566 C.3       1 <0>         0.0043
     20 C12         1.2086   -0.8032    0.0295 C.3       1 <0>         0.2101
     21 C13        -4.9658   -0.9109   -1.2173 C.3       1 <0>        -0.0621
     22 C14         0.9172   -2.8916    1.4475 C.3       1 <0>        -0.0564
     23 C15        -0.7844    4.0852    0.4827 C.3       1 <0>        -0.0077
     24 C16         3.4345   -0.2136   -0.5171 C.2       1 <0>         0.3098
     25 C17         4.8519   -0.3010    0.0068 C.3       1 <0>         0.0550
     26 C18         5.8646    0.4056   -0.8862 C.3       1 <0>         0.0548
     27 C19         7.2524    0.3407   -0.2980 C.2       1 <0>         0.3052
     28 H1         -3.6205   -0.1533    1.0821 H         1 <0>         0.0334
     29 H2         -1.6241   -1.7439    1.7783 H         1 <0>         0.0336
     30 H3         -2.9477   -0.6419   -1.8629 H         1 <0>         0.0302
     31 H4         -0.7273    0.1644   -1.4937 H         1 <0>         0.0943
     32 H5         -1.3027   -3.4331    0.0376 H         1 <0>         0.0269
     33 H6         -0.9856   -2.2081   -1.1818 H         1 <0>         0.0269
     34 H7          0.5772   -0.8961    2.0727 H         1 <0>         0.0362
     35 H8         -4.6194    1.6053   -0.0493 H         1 <0>         0.0271
     36 H9         -3.3792    1.6988   -1.2799 H         1 <0>         0.0271
     37 H10        -3.2746   -3.0273   -1.3411 H         1 <0>         0.0268
     38 H11        -3.5841   -2.6543    0.3512 H         1 <0>         0.0268
     39 H12        -3.2545    3.6131    0.1015 H         1 <0>         0.0318
     40 H13        -3.2140    2.6936    1.6002 H         1 <0>         0.0318
     41 H14         1.0989   -1.3534   -0.9134 H         1 <0>         0.1060
     42 H15        -5.2222   -1.6948   -1.9384 H         1 <0>         0.0233
     43 H16        -5.5440   -1.0897   -0.3045 H         1 <0>         0.0233
     44 H17        -5.2928    0.0396   -1.6496 H         1 <0>         0.0233
     45 H18         1.9309   -2.8618    1.8614 H         1 <0>         0.0234
     46 H19         0.2782   -3.3908    2.1834 H         1 <0>         0.0234
     47 H20         0.9508   -3.5070    0.5429 H         1 <0>         0.0234
     48 H21        -1.0686    4.6243    1.3928 H         1 <0>         0.0282
     49 H22         0.3114    4.0683    0.4449 H         1 <0>         0.0282
     50 H23        -1.1267    4.6482   -0.3921 H         1 <0>         0.0282
     51 H24         5.1136   -1.3617    0.0996 H         1 <0>         0.0383
     52 H25         4.8677    0.1480    1.0073 H         1 <0>         0.0383
     53 H26         5.5895    1.4595   -1.0046 H         1 <0>         0.0383
     54 H27         5.8840   -0.0646   -1.8756 H         1 <0>         0.0383
     55 H28         9.0767    0.9035   -0.6841 H         1 <0>         0.2951
@<TRIPOS>BOND
     1    1    4 1
     2    1    9 1
     3    2   13 1
     4    2   18 1
     5    3   13 1
     6    3   20 1
     7    4   18 1
     8    5   20 1
     9    5   24 1
    10    6   24 2
    11    7   27 1
    12    7   55 1
    13    8   27 2
    14    9   10 1
    15    9   11 1
    16    9   13 1
    17   10   12 1
    18   10   16 1
    19   10   28 1
    20   11   14 1
    21   11   15 1
    22   11   29 1
    23   12   17 1
    24   12   21 1
    25   12   30 1
    26   13   31 1
    27   14   17 1
    28   14   32 1
    29   14   33 1
    30   15   20 1
    31   15   22 1
    32   15   34 1
    33   16   19 1
    34   16   35 1
    35   16   36 1
    36   17   37 1
    37   17   38 1
    38   18   19 1
    39   18   23 1
    40   19   39 1
    41   19   40 1
    42   20   41 1
    43   21   42 1
    44   21   43 1
    45   21   44 1
    46   22   45 1
    47   22   46 1
    48   22   47 1
    49   23   48 1
    50   23   49 1
    51   23   50 1
    52   24   25 1
    53   25   26 1
    54   25   51 1
    55   25   52 1
    56   26   27 1
    57   26   53 1
    58   26   54 1
