@<TRIPOS>MOLECULE
DB09242
   28    29     0     0     0
SMALL
USER_CHARGES

@<TRIPOS>ATOM
      1 Cl1         1.3215    3.7148   -0.2044 Cl        1 <0>        -0.0583
      2 O1          0.0917   -1.2033    0.4023 O.3       1 <0>        -0.4774
      3 N1         -2.9705    0.9702    0.6376 N.pl3     1 <0>        -0.2350
      4 N2         -0.7326    1.4693    0.2493 N.pl3     1 <0>        -0.1993
      5 N3         -1.9374   -0.1320   -1.0559 N.2       1 <0>        -0.1140
      6 N4          2.3019   -0.6133    0.0808 N.ar      1 <0>        -0.1954
      7 N5          2.9243    1.6968   -0.2083 N.ar      1 <0>        -0.2173
      8 C1         -4.0409    0.1471    0.1635 C.3       1 <0>         0.0920
      9 C2         -3.3545   -0.6016   -0.9861 C.3       1 <0>         0.1328
     10 C3         -1.8405    0.7528   -0.0925 C.2       1 <0>         0.3696
     11 C4          0.6137    1.1039    0.1227 C.ar      1 <0>         0.1907
     12 C5          1.0182   -0.2142    0.1970 C.ar      1 <0>         0.2570
     13 C6          1.6215    2.0249   -0.0832 C.ar      1 <0>         0.1727
     14 C7          3.1898    0.3797   -0.1173 C.ar      1 <0>         0.1316
     15 C8          4.6196   -0.0219   -0.2509 C.3       1 <0>        -0.0044
     16 C9          0.5830   -2.5366    0.4673 C.3       1 <0>         0.0805
     17 H1         -4.8816    0.7487   -0.1938 H         1 <0>         0.0665
     18 H2         -4.3905   -0.5409    0.9387 H         1 <0>         0.0665
     19 H3         -3.3711   -1.6831   -0.8145 H         1 <0>         0.0723
     20 H4         -3.8529   -0.3981   -1.9396 H         1 <0>         0.0723
     21 H5         -3.0576    1.6140    1.4141 H         1 <0>         0.2445
     22 H6         -0.8743    2.3834    0.6696 H         1 <0>         0.2514
     23 H7          4.7994   -0.9944    0.2183 H         1 <0>         0.0308
     24 H8          4.8868   -0.0898   -1.3095 H         1 <0>         0.0308
     25 H9          5.2723    0.7129    0.2304 H         1 <0>         0.0308
     26 H10         1.2733   -2.6612    1.3084 H         1 <0>         0.0660
     27 H11         1.0582   -2.8272   -0.4756 H         1 <0>         0.0660
     28 H12        -0.2707   -3.2007    0.6318 H         1 <0>         0.0660
@<TRIPOS>BOND
     1    1   13 1
     2    2   12 1
     3    2   16 1
     4    3    8 1
     5    3   10 1
     6    3   21 1
     7    4   10 1
     8    4   11 1
     9    4   22 1
    10    5    9 1
    11    5   10 2
    12    6   12 ar
    13    6   14 ar
    14    7   13 ar
    15    7   14 ar
    16    8    9 1
    17    8   17 1
    18    8   18 1
    19    9   19 1
    20    9   20 1
    21   11   12 ar
    22   11   13 ar
    23   14   15 1
    24   15   23 1
    25   15   24 1
    26   15   25 1
    27   16   26 1
    28   16   27 1
    29   16   28 1
