@<TRIPOS>MOLECULE
DB09526
   14    14     0     0     0
SMALL
USER_CHARGES

@<TRIPOS>ATOM
      1 O1         -2.6647   -0.7028    0.0001 O.3       1 <0>        -0.5068
      2 O2          2.6650    0.7028    0.0001 O.3       1 <0>        -0.5068
      3 C1         -1.3488   -0.3557   -0.0000 C.ar      1 <0>         0.1171
      4 C2          1.3487    0.3558   -0.0001 C.ar      1 <0>         0.1171
      5 C3         -0.3664   -1.3459   -0.0001 C.ar      1 <0>        -0.0167
      6 C4          0.9823   -0.9902   -0.0000 C.ar      1 <0>        -0.0167
      7 C5         -0.9824    0.9902   -0.0000 C.ar      1 <0>        -0.0167
      8 C6          0.3664    1.3459   -0.0001 C.ar      1 <0>        -0.0167
      9 H1         -0.6457   -2.3961   -0.0001 H         1 <0>         0.0655
     10 H2          1.7380   -1.7712   -0.0000 H         1 <0>         0.0655
     11 H3         -1.7381    1.7712    0.0001 H         1 <0>         0.0655
     12 H4          0.6456    2.3960   -0.0001 H         1 <0>         0.0655
     13 H5         -3.2040    0.1066    0.0001 H         1 <0>         0.2921
     14 H6          3.2042   -0.1066    0.0002 H         1 <0>         0.2921
@<TRIPOS>BOND
     1    1    3 1
     2    1   13 1
     3    2    4 1
     4    2   14 1
     5    3    5 ar
     6    3    7 ar
     7    4    6 ar
     8    4    8 ar
     9    5    6 ar
    10    5    9 1
    11    6   10 1
    12    7    8 ar
    13    7   11 1
    14    8   12 1
