@<TRIPOS>MOLECULE
DB09543
   19    19     0     0     0
SMALL
USER_CHARGES

@<TRIPOS>ATOM
      1 O1          2.1011    0.4630   -0.2573 O.3       1 <0>        -0.4644
      2 O2         -0.8389   -2.3771   -0.0167 O.3       1 <0>        -0.5059
      3 O3          1.6492   -1.5446    0.7744 O.2       1 <0>        -0.2448
      4 C1         -0.1315   -0.0904    0.1425 C.ar      1 <0>         0.1002
      5 C2         -1.1369   -1.0475    0.0065 C.ar      1 <0>         0.1308
      6 C3         -0.4577    1.2657    0.1633 C.ar      1 <0>        -0.0442
      7 C4         -2.4686   -0.6486   -0.1090 C.ar      1 <0>        -0.0194
      8 C5         -1.7893    1.6645    0.0479 C.ar      1 <0>        -0.0608
      9 C6         -2.7948    0.7074   -0.0883 C.ar      1 <0>        -0.0583
     10 C7          1.2650   -0.4850    0.2645 C.2       1 <0>         0.3425
     11 C8          3.5049    0.1885   -0.1977 C.3       1 <0>         0.0820
     12 H1          0.3002    2.0357    0.2821 H         1 <0>         0.0627
     13 H2         -3.2623   -1.3832   -0.2155 H         1 <0>         0.0654
     14 H3         -2.0441    2.7202    0.0672 H         1 <0>         0.0618
     15 H4         -3.8317    1.0181   -0.1774 H         1 <0>         0.0619
     16 H5         -1.6618   -2.8857   -0.1173 H         1 <0>         0.2922
     17 H6          3.7360   -0.7190   -0.7631 H         1 <0>         0.0661
     18 H7          3.8253    0.0875    0.8434 H         1 <0>         0.0661
     19 H8          4.0359    1.0304   -0.6497 H         1 <0>         0.0661
@<TRIPOS>BOND
     1    1   10 1
     2    1   11 1
     3    2    5 1
     4    2   16 1
     5    3   10 2
     6    4    5 ar
     7    4    6 ar
     8    4   10 1
     9    5    7 ar
    10    6    8 ar
    11    6   12 1
    12    7    9 ar
    13    7   13 1
    14    8    9 ar
    15    8   14 1
    16    9   15 1
    17   11   17 1
    18   11   18 1
    19   11   19 1
