@<TRIPOS>MOLECULE
DB09167
   42    44     0     0     0
SMALL
USER_CHARGES

@<TRIPOS>ATOM
      1 S1          3.7916    1.2673   -1.1598 S.3       1 <0>        -0.1199
      2 N1         -3.7685   -0.4504   -0.0249 N.3       1 <0>        -0.3081
      3 C1          1.0023   -0.2630   -0.0027 C.2       1 <0>        -0.0133
      4 C2          0.7664    1.1403    0.3883 C.ar      1 <0>        -0.0136
      5 C3          2.3292   -0.9307    0.0479 C.ar      1 <0>        -0.0042
      6 C4          1.3060    2.1737   -0.3952 C.ar      1 <0>        -0.0295
      7 C5         -1.4108   -0.3178   -0.6823 C.3       1 <0>        -0.0211
      8 C6         -0.0561   -0.9264   -0.5084 C.2       1 <0>        -0.0745
      9 C7         -2.4574   -1.0683    0.1402 C.3       1 <0>         0.0018
     10 C8          2.1305    1.8472   -1.6086 C.3       1 <0>         0.0240
     11 C9          3.5352   -0.3520   -0.4083 C.ar      1 <0>         0.0159
     12 C10         0.0137    1.4487    1.5308 C.ar      1 <0>        -0.0537
     13 C11         1.0859    3.5060   -0.0185 C.ar      1 <0>        -0.0572
     14 C12         2.3798   -2.2110    0.6470 C.ar      1 <0>        -0.0530
     15 C13         4.7338   -1.0860   -0.2658 C.ar      1 <0>        -0.0477
     16 C14        -0.2008    2.7784    1.8918 C.ar      1 <0>        -0.0612
     17 C15         0.3344    3.8055    1.1182 C.ar      1 <0>        -0.0614
     18 C16         3.5749   -2.9168    0.7726 C.ar      1 <0>        -0.0611
     19 C17         4.7538   -2.3544    0.3125 C.ar      1 <0>        -0.0607
     20 C18        -4.7693   -1.1408    0.7901 C.3       1 <0>        -0.0130
     21 C19        -4.1674   -0.4574   -1.4331 C.3       1 <0>        -0.0130
     22 H1         -1.6197   -0.4308   -1.7540 H         1 <0>         0.0320
     23 H2         -1.4786    0.7565   -0.4957 H         1 <0>         0.0320
     24 H3          0.0511   -1.9500   -0.8621 H         1 <0>         0.0579
     25 H4         -2.4784   -2.1281   -0.1487 H         1 <0>         0.0429
     26 H5         -2.1696   -1.0297    1.1989 H         1 <0>         0.0429
     27 H6          1.6271    1.1189   -2.2544 H         1 <0>         0.0429
     28 H7          2.2567    2.7459   -2.2234 H         1 <0>         0.0429
     29 H8         -0.4028    0.6601    2.1530 H         1 <0>         0.0624
     30 H9          1.5005    4.3204   -0.6072 H         1 <0>         0.0621
     31 H10         1.4765   -2.6761    1.0394 H         1 <0>         0.0624
     32 H11         5.6833   -0.6740   -0.6064 H         1 <0>         0.0629
     33 H12        -0.7830    3.0127    2.7782 H         1 <0>         0.0618
     34 H13         0.1691    4.8410    1.4014 H         1 <0>         0.0618
     35 H14         3.5813   -3.8994    1.2347 H         1 <0>         0.0618
     36 H15         5.6911   -2.8942    0.4079 H         1 <0>         0.0618
     37 H16        -4.4889   -1.1132    1.8490 H         1 <0>         0.0391
     38 H17        -4.8938   -2.1884    0.4928 H         1 <0>         0.0391
     39 H18        -5.7415   -0.6413    0.7121 H         1 <0>         0.0391
     40 H19        -5.2108   -0.1342   -1.5345 H         1 <0>         0.0391
     41 H20        -4.0835   -1.4510   -1.8884 H         1 <0>         0.0391
     42 H21        -3.5934    0.2626   -2.0247 H         1 <0>         0.0391
@<TRIPOS>BOND
     1    1   10 1
     2    1   11 1
     3    2    9 1
     4    2   20 1
     5    2   21 1
     6    3    4 1
     7    3    5 1
     8    3    8 2
     9    4    6 ar
    10    4   12 ar
    11    5   11 ar
    12    5   14 ar
    13    6   10 1
    14    6   13 ar
    15    7    8 1
    16    7    9 1
    17    7   22 1
    18    7   23 1
    19    8   24 1
    20    9   25 1
    21    9   26 1
    22   10   27 1
    23   10   28 1
    24   11   15 ar
    25   12   16 ar
    26   12   29 1
    27   13   17 ar
    28   13   30 1
    29   14   18 ar
    30   14   31 1
    31   15   19 ar
    32   15   32 1
    33   16   17 ar
    34   16   33 1
    35   17   34 1
    36   18   19 ar
    37   18   35 1
    38   19   36 1
    39   20   37 1
    40   20   38 1
    41   20   39 1
    42   21   40 1
    43   21   41 1
    44   21   42 1
