@<TRIPOS>MOLECULE
DB09350
   54    55     0     0     0
SMALL
USER_CHARGES

@<TRIPOS>ATOM
      1 O1         -4.5141    2.3592   -1.0741 O.3       1 <0>        -0.4526
      2 O2         -4.4699    0.8149   -2.9237 O.3       1 <0>        -0.4526
      3 O3         -0.1573   -2.0709   -1.0609 O.3       1 <0>        -0.3729
      4 O4          2.6032   -1.8868   -0.7784 O.3       1 <0>        -0.3752
      5 O5          3.6060    0.7124   -0.5209 O.3       1 <0>        -0.3775
      6 C1         -2.2937   -0.1505    0.4205 C.ar      1 <0>        -0.0383
      7 C2         -2.2680   -1.0514   -0.6585 C.ar      1 <0>        -0.0151
      8 C3         -1.5270   -0.4383    1.6708 C.3       1 <0>        -0.0275
      9 C4         -3.0385    1.0288    0.3447 C.ar      1 <0>        -0.0126
     10 C5         -2.3583   -1.2275    2.6901 C.3       1 <0>        -0.0519
     11 C6         -3.7392    1.2698   -0.8195 C.ar      1 <0>         0.1665
     12 C7         -1.4717   -2.3135   -0.5774 C.3       1 <0>         0.0731
     13 C8         -2.9870   -0.7835   -1.8260 C.ar      1 <0>        -0.0105
     14 C9         -3.7142    0.3879   -1.8756 C.ar      1 <0>         0.1666
     15 C10        -1.5613   -1.5456    3.9453 C.3       1 <0>        -0.0650
     16 C11        -4.9746    2.0639   -2.4086 C.3       1 <0>         0.2332
     17 C12         0.6437   -3.2435   -1.0050 C.3       1 <0>         0.0714
     18 C13         3.1184    2.9727    0.1008 C.3       1 <0>        -0.0297
     19 C14         2.0218   -2.9280   -1.5540 C.3       1 <0>         0.0711
     20 C15         4.0686    1.7961    0.2729 C.3       1 <0>         0.0478
     21 C16         1.7024    2.6239    0.5505 C.3       1 <0>        -0.0538
     22 C17         4.4564   -0.4214   -0.4016 C.3       1 <0>         0.0710
     23 C18         3.9001   -1.5489   -1.2497 C.3       1 <0>         0.0711
     24 C19         0.7664    3.8144    0.4175 C.3       1 <0>        -0.0652
     25 H1         -1.2161    0.5123    2.1263 H         1 <0>         0.0313
     26 H2         -0.5826   -0.9508    1.4544 H         1 <0>         0.0313
     27 H3         -3.0717    1.7348    1.1678 H         1 <0>         0.0658
     28 H4         -2.7218   -2.1643    2.2529 H         1 <0>         0.0266
     29 H5         -3.2479   -0.6500    2.9703 H         1 <0>         0.0266
     30 H6         -1.4417   -2.7311    0.4334 H         1 <0>         0.0610
     31 H7         -1.9460   -3.0819   -1.2027 H         1 <0>         0.0610
     32 H8         -2.9769   -1.4658   -2.6694 H         1 <0>         0.0659
     33 H9         -2.1802   -2.1000    4.6576 H         1 <0>         0.0230
     34 H10        -1.2183   -0.6284    4.4346 H         1 <0>         0.0230
     35 H11        -0.6853   -2.1574    3.7075 H         1 <0>         0.0230
     36 H12        -4.6570    2.8729   -3.0764 H         1 <0>         0.1166
     37 H13        -6.0699    2.0234   -2.4009 H         1 <0>         0.1166
     38 H14         0.1817   -4.0433   -1.5941 H         1 <0>         0.0583
     39 H15         0.7277   -3.5641    0.0399 H         1 <0>         0.0583
     40 H16         3.4948    3.8279    0.6737 H         1 <0>         0.0287
     41 H17         3.0926    3.2662   -0.9558 H         1 <0>         0.0287
     42 H18         2.6537   -3.8220   -1.5149 H         1 <0>         0.0583
     43 H19         1.9354   -2.5893   -2.5929 H         1 <0>         0.0583
     44 H20         4.1126    1.4960    1.3263 H         1 <0>         0.0560
     45 H21         5.0737    2.0879   -0.0526 H         1 <0>         0.0560
     46 H22         1.3041    1.7948   -0.0457 H         1 <0>         0.0263
     47 H23         1.7138    2.2934    1.5958 H         1 <0>         0.0263
     48 H24         5.4673   -0.1651   -0.7370 H         1 <0>         0.0583
     49 H25         4.4896   -0.7319    0.6493 H         1 <0>         0.0583
     50 H26         4.5583   -2.4223   -1.1878 H         1 <0>         0.0583
     51 H27         3.8263   -1.2227   -2.2937 H         1 <0>         0.0583
     52 H28         0.7057    4.1515   -0.6222 H         1 <0>         0.0230
     53 H29        -0.2417    3.5416    0.7451 H         1 <0>         0.0230
     54 H30         1.1079    4.6534    1.0321 H         1 <0>         0.0230
@<TRIPOS>BOND
     1    1   11 1
     2    1   16 1
     3    2   14 1
     4    2   16 1
     5    3   12 1
     6    3   17 1
     7    4   19 1
     8    4   23 1
     9    5   20 1
    10    5   22 1
    11    6    7 ar
    12    6    8 1
    13    6    9 ar
    14    7   12 1
    15    7   13 ar
    16    8   10 1
    17    8   25 1
    18    8   26 1
    19    9   11 ar
    20    9   27 1
    21   10   15 1
    22   10   28 1
    23   10   29 1
    24   11   14 ar
    25   12   30 1
    26   12   31 1
    27   13   14 ar
    28   13   32 1
    29   15   33 1
    30   15   34 1
    31   15   35 1
    32   16   36 1
    33   16   37 1
    34   17   19 1
    35   17   38 1
    36   17   39 1
    37   18   20 1
    38   18   21 1
    39   18   40 1
    40   18   41 1
    41   19   42 1
    42   19   43 1
    43   20   44 1
    44   20   45 1
    45   21   24 1
    46   21   46 1
    47   21   47 1
    48   22   23 1
    49   22   48 1
    50   22   49 1
    51   23   50 1
    52   23   51 1
    53   24   52 1
    54   24   53 1
    55   24   54 1
