@<TRIPOS>MOLECULE
DB09383
   55    58     0     0     0
SMALL
USER_CHARGES

@<TRIPOS>ATOM
      1 O1         -2.6495    0.7137    1.9970 O.3       1 <0>        -0.3801
      2 O2          1.3031    2.7915   -0.7186 O.2       1 <0>        -0.2970
      3 O3         -3.6908    2.0327   -0.7885 O.2       1 <0>        -0.2919
      4 O4         -6.2487    1.3150   -0.0514 O.3       1 <0>        -0.3874
      5 O5          6.6644    0.0376    1.9027 O.2       1 <0>        -0.2879
      6 C1         -1.3464    0.6416   -0.0668 C.3       1 <0>         0.0137
      7 C2         -0.5658   -0.6243    0.3662 C.3       1 <0>        -0.0283
      8 C3          0.8411   -0.7071   -0.2487 C.3       1 <0>        -0.0267
      9 C4         -2.7222    0.3620    0.6086 C.3       1 <0>         0.1343
     10 C5          1.6701    0.5418    0.1963 C.3       1 <0>         0.0331
     11 C6         -1.5461   -1.7546    0.0703 C.3       1 <0>        -0.0437
     12 C7         -2.9178   -1.1844    0.5093 C.3       1 <0>        -0.0071
     13 C8         -0.5643    1.8606    0.4411 C.3       1 <0>         0.0148
     14 C9          3.1475    0.5125   -0.3333 C.3       1 <0>         0.0174
     15 C10         1.5490   -2.0089    0.1570 C.3       1 <0>        -0.0455
     16 C11         0.8552    1.8206   -0.1122 C.2       1 <0>         0.1384
     17 C12        -1.5107    0.7639   -1.6084 C.3       1 <0>        -0.0559
     18 C13         2.9737   -2.0676   -0.3822 C.3       1 <0>        -0.0302
     19 C14         3.7487   -0.8476    0.0488 C.2       1 <0>        -0.0556
     20 C15        -3.8496    1.2268    0.1273 C.2       1 <0>         0.1904
     21 C16        -4.0229   -1.6696   -0.4245 C.3       1 <0>        -0.0594
     22 C17         3.2359    0.6733   -1.8679 C.3       1 <0>        -0.0517
     23 C18         3.9506    1.6532    0.2794 C.2       1 <0>        -0.0698
     24 C19         4.8722   -0.9920    0.7692 C.2       1 <0>        -0.0149
     25 C20        -5.1784    1.0487    0.8302 C.3       1 <0>         0.1052
     26 C21         5.0684    1.5140    0.9995 C.2       1 <0>        -0.0180
     27 C22         5.6225    0.1762    1.2712 C.2       1 <0>         0.1787
     28 H1         -0.4250   -0.6055    1.4583 H         1 <0>         0.0310
     29 H2          0.7599   -0.7237   -1.3397 H         1 <0>         0.0311
     30 H3          1.7296    0.5225    1.2973 H         1 <0>         0.0392
     31 H4         -1.5358   -2.0117   -0.9953 H         1 <0>         0.0272
     32 H5         -1.3042   -2.6632    0.6318 H         1 <0>         0.0272
     33 H6         -3.1390   -1.5936    1.5045 H         1 <0>         0.0330
     34 H7         -0.4832    1.8814    1.5336 H         1 <0>         0.0348
     35 H8         -1.0457    2.7951    0.1328 H         1 <0>         0.0348
     36 H9          0.9950   -2.8748   -0.2234 H         1 <0>         0.0271
     37 H10         1.5665   -2.0992    1.2511 H         1 <0>         0.0271
     38 H11        -1.7867    1.7764   -1.9194 H         1 <0>         0.0236
     39 H12        -0.5764    0.5740   -2.1432 H         1 <0>         0.0236
     40 H13        -2.2445    0.0660   -2.0182 H         1 <0>         0.0236
     41 H14         2.9623   -2.1341   -1.4762 H         1 <0>         0.0310
     42 H15         3.4478   -2.9904   -0.0258 H         1 <0>         0.0310
     43 H16        -5.0198   -1.5311   -0.0033 H         1 <0>         0.0233
     44 H17        -3.9908   -1.1747   -1.3990 H         1 <0>         0.0233
     45 H18        -3.9188   -2.7466   -0.6024 H         1 <0>         0.0233
     46 H19        -2.1861    0.0132    2.4845 H         1 <0>         0.2108
     47 H20         2.9376    1.6733   -2.1992 H         1 <0>         0.0241
     48 H21         4.2640    0.5201   -2.2212 H         1 <0>         0.0241
     49 H22         2.6045   -0.0417   -2.4041 H         1 <0>         0.0241
     50 H23         3.6118    2.6701    0.1004 H         1 <0>         0.0582
     51 H24         5.2636   -1.9703    1.0280 H         1 <0>         0.0655
     52 H25        -5.2211    1.7807    1.6431 H         1 <0>         0.0637
     53 H26        -5.3074    0.0626    1.2750 H         1 <0>         0.0637
     54 H27         5.5976    2.3752    1.3906 H         1 <0>         0.0653
     55 H28        -6.2449    0.6209   -0.7324 H         1 <0>         0.2100
@<TRIPOS>BOND
     1    1    9 1
     2    1   46 1
     3    2   16 2
     4    3   20 2
     5    4   25 1
     6    4   55 1
     7    5   27 2
     8    6    7 1
     9    6    9 1
    10    6   13 1
    11    6   17 1
    12    7    8 1
    13    7   11 1
    14    7   28 1
    15    8   10 1
    16    8   15 1
    17    8   29 1
    18    9   12 1
    19    9   20 1
    20   10   14 1
    21   10   16 1
    22   10   30 1
    23   11   12 1
    24   11   31 1
    25   11   32 1
    26   12   21 1
    27   12   33 1
    28   13   16 1
    29   13   34 1
    30   13   35 1
    31   14   19 1
    32   14   22 1
    33   14   23 1
    34   15   18 1
    35   15   36 1
    36   15   37 1
    37   17   38 1
    38   17   39 1
    39   17   40 1
    40   18   19 1
    41   18   41 1
    42   18   42 1
    43   19   24 2
    44   20   25 1
    45   21   43 1
    46   21   44 1
    47   21   45 1
    48   22   47 1
    49   22   48 1
    50   22   49 1
    51   23   26 2
    52   23   50 1
    53   24   27 1
    54   24   51 1
    55   25   52 1
    56   25   53 1
    57   26   27 1
    58   26   54 1
