@<TRIPOS>MOLECULE
DB09097
   60    62     0     0     0
SMALL
USER_CHARGES

@<TRIPOS>ATOM
      1 S1         -3.3046   -0.4690   -0.7630 S.o2      1 <0>         0.0973
      2 O1          4.2635    4.0398   -0.7008 O.3       1 <0>        -0.5065
      3 O2         -3.7841   -0.1351   -2.0920 O.2       1 <0>        -0.1411
      4 O3         -3.3574   -1.8440   -0.2998 O.2       1 <0>        -0.1411
      5 N1          0.8308   -1.5451   -0.3923 N.3       1 <0>        -0.2973
      6 N2         -1.6920    0.0908   -0.6299 N.pl3     1 <0>        -0.1754
      7 N3         -4.1236    0.5386    0.3870 N.pl3     1 <0>        -0.1671
      8 C1          1.2939    0.8862   -0.7402 C.3       1 <0>        -0.0195
      9 C2          1.8979   -0.5263   -0.5472 C.3       1 <0>         0.0176
     10 C3          0.2673    0.9237   -1.8808 C.3       1 <0>        -0.0301
     11 C4         -0.7628   -0.1911   -1.7553 C.3       1 <0>         0.0429
     12 C5         -0.0892   -1.5457   -1.5437 C.3       1 <0>         0.0163
     13 C6          2.4055    1.9123   -1.0172 C.3       1 <0>        -0.0197
     14 C7          2.8310   -0.4927    0.6871 C.3       1 <0>        -0.0114
     15 C8          3.5432    1.8398   -0.0354 C.ar      1 <0>        -0.0024
     16 C9          3.7639    0.6922    0.7408 C.ar      1 <0>        -0.0392
     17 C10         1.3663   -2.8979   -0.2080 C.3       1 <0>        -0.0010
     18 C11         0.2354   -3.8797    0.0878 C.3       1 <0>        -0.0430
     19 C12         4.4317    2.9218    0.0634 C.ar      1 <0>         0.1203
     20 C13         4.8497    0.6625    1.6304 C.ar      1 <0>        -0.0580
     21 C14         5.5126    2.8764    0.9429 C.ar      1 <0>        -0.0199
     22 C15         5.7202    1.7473    1.7286 C.ar      1 <0>        -0.0580
     23 C16         0.7671   -5.2880    0.3045 C.3       1 <0>        -0.0641
     24 C17        -3.6589    0.4475    1.7989 C.3       1 <0>         0.0187
     25 C18        -4.3061    1.9564   -0.0279 C.3       1 <0>         0.0187
     26 C19        -4.8075    0.7596    2.7367 C.3       1 <0>        -0.0507
     27 C20        -5.6075    2.1027   -0.7902 C.3       1 <0>        -0.0507
     28 H1          0.7847    1.1756    0.1911 H         1 <0>         0.0320
     29 H2          2.5031   -0.7697   -1.4335 H         1 <0>         0.0468
     30 H3         -0.2295    1.9018   -1.9026 H         1 <0>         0.0284
     31 H4          0.7871    0.8106   -2.8415 H         1 <0>         0.0284
     32 H5         -1.3318   -0.2130   -2.6917 H         1 <0>         0.0490
     33 H6         -0.9068   -2.2579   -1.4298 H         1 <0>         0.0442
     34 H7          0.4533   -1.8229   -2.4579 H         1 <0>         0.0442
     35 H8          1.9405    2.9055   -0.9834 H         1 <0>         0.0318
     36 H9          2.8146    1.7616   -2.0245 H         1 <0>         0.0318
     37 H10         3.4530   -1.3956    0.6980 H         1 <0>         0.0329
     38 H11         2.2312   -0.4841    1.6071 H         1 <0>         0.0329
     39 H12         1.9373   -3.2219   -1.0875 H         1 <0>         0.0427
     40 H13         2.0410   -2.9372    0.6525 H         1 <0>         0.0427
     41 H14        -1.2485   -0.0474    0.2883 H         1 <0>         0.1494
     42 H15        -0.3241   -3.5624    0.9761 H         1 <0>         0.0275
     43 H16        -0.4756   -3.9753   -0.7357 H         1 <0>         0.0275
     44 H17         5.0226   -0.2121    2.2532 H         1 <0>         0.0620
     45 H18         6.1962    3.7175    1.0183 H         1 <0>         0.0654
     46 H19         6.5590    1.7101    2.4173 H         1 <0>         0.0619
     47 H20        -0.0566   -5.9775    0.5152 H         1 <0>         0.0230
     48 H21         1.4592   -5.3199    1.1522 H         1 <0>         0.0230
     49 H22         1.2946   -5.6505   -0.5837 H         1 <0>         0.0230
     50 H23         3.6795    3.8570   -1.4532 H         1 <0>         0.2921
     51 H24        -2.8191    1.1295    1.9724 H         1 <0>         0.0441
     52 H25        -3.3113   -0.5693    2.0102 H         1 <0>         0.0441
     53 H26        -3.4659    2.2799   -0.6528 H         1 <0>         0.0441
     54 H27        -4.3136    2.6377    0.8282 H         1 <0>         0.0441
     55 H28        -5.1573    1.7916    2.6460 H         1 <0>         0.0243
     56 H29        -5.6611    0.1014    2.5417 H         1 <0>         0.0243
     57 H30        -4.4952    0.6089    3.7752 H         1 <0>         0.0243
     58 H31        -5.6276    1.5067   -1.7056 H         1 <0>         0.0243
     59 H32        -6.4560    1.7890   -0.1725 H         1 <0>         0.0243
     60 H33        -5.7634    3.1491   -1.0717 H         1 <0>         0.0243
@<TRIPOS>BOND
     1    1    3 2
     2    1    4 2
     3    1    6 1
     4    1    7 1
     5    2   19 1
     6    2   50 1
     7    5    9 1
     8    5   12 1
     9    5   17 1
    10    6   11 1
    11    6   41 1
    12    7   24 1
    13    7   25 1
    14    8    9 1
    15    8   10 1
    16    8   13 1
    17    8   28 1
    18    9   14 1
    19    9   29 1
    20   10   11 1
    21   10   30 1
    22   10   31 1
    23   11   12 1
    24   11   32 1
    25   12   33 1
    26   12   34 1
    27   13   15 1
    28   13   35 1
    29   13   36 1
    30   14   16 1
    31   14   37 1
    32   14   38 1
    33   15   16 ar
    34   15   19 ar
    35   16   20 ar
    36   17   18 1
    37   17   39 1
    38   17   40 1
    39   18   23 1
    40   18   42 1
    41   18   43 1
    42   19   21 ar
    43   20   22 ar
    44   20   44 1
    45   21   22 ar
    46   21   45 1
    47   22   46 1
    48   23   47 1
    49   23   48 1
    50   23   49 1
    51   24   26 1
    52   24   51 1
    53   24   52 1
    54   25   27 1
    55   25   53 1
    56   25   54 1
    57   26   55 1
    58   26   56 1
    59   26   57 1
    60   27   58 1
    61   27   59 1
    62   27   60 1
