@<TRIPOS>MOLECULE
DB09157
    3     2     0     0     0
SMALL
USER_CHARGES

@<TRIPOS>ATOM
      1 O1          1.1970    0.0000    0.0000 O.2       1 <0>        -0.1861
      2 O2         -1.1970    0.0000    0.0000 O.2       1 <0>        -0.1861
      3 C1          0.0000    0.0000    0.0000 C.1       1 <0>         0.3722
@<TRIPOS>BOND
     1    1    3 2
     2    2    3 2
