@<TRIPOS>MOLECULE
DB09280
   51    55     0     0     0
SMALL
USER_CHARGES

@<TRIPOS>ATOM
      1 F1          4.5724   -4.7742    1.5296 F         1 <0>        -0.1252
      2 F2          5.9621   -4.7308   -0.1601 F         1 <0>        -0.1252
      3 O1          2.2660    2.7432    0.8255 O.2       1 <0>        -0.2745
      4 O2          4.1271   -3.3999   -0.2184 O.3       1 <0>        -0.3954
      5 O3          5.9610   -2.9960    1.3002 O.3       1 <0>        -0.3955
      6 O4         -6.3501   -3.7782   -0.3187 O.3       1 <0>        -0.4771
      7 O5         -4.7346   -3.6723    1.2767 O.2       1 <0>        -0.2451
      8 N1          0.9077    1.2459   -0.3729 N.am      1 <0>        -0.2696
      9 N2         -1.3981    0.7252   -0.3006 N.ar      1 <0>        -0.2316
     10 C1          3.2511    1.4216   -0.8127 C.3       1 <0>         0.0723
     11 C2          4.0347    2.4631   -1.5527 C.3       1 <0>        -0.0337
     12 C3          3.1496    1.5133   -2.3054 C.3       1 <0>        -0.0337
     13 C4          3.9944    0.2674   -0.2311 C.ar      1 <0>        -0.0288
     14 C5          2.0877    1.8818   -0.0248 C.2       1 <0>         0.2288
     15 C6          3.6247   -1.0365   -0.5694 C.ar      1 <0>        -0.0118
     16 C7          5.0622    0.5026    0.6531 C.ar      1 <0>        -0.0539
     17 C8          4.3421   -2.0719   -0.0064 C.ar      1 <0>         0.1729
     18 C9          5.7730   -0.5634    1.2098 C.ar      1 <0>        -0.0156
     19 C10         5.3885   -1.8415    0.8599 C.ar      1 <0>         0.1727
     20 C11        -0.3767    1.4523    0.1850 C.ar      1 <0>         0.1256
     21 C12         5.1538   -3.9619    0.6116 C.3       1 <0>         0.5891
     22 C13        -0.4767    2.3906    1.1899 C.ar      1 <0>        -0.0212
     23 C14        -2.6050    0.9567    0.2630 C.ar      1 <0>         0.0760
     24 C15        -1.7344    2.6006    1.7448 C.ar      1 <0>        -0.0536
     25 C16        -2.8241    1.8739    1.2781 C.ar      1 <0>        -0.0243
     26 C17        -3.6751    0.1552   -0.2879 C.ar      1 <0>         0.0014
     27 C18        -4.1712    2.1017    1.8739 C.3       1 <0>        -0.0377
     28 C19        -3.9735   -1.0892    0.2681 C.ar      1 <0>        -0.0386
     29 C20        -4.4106    0.6264   -1.3760 C.ar      1 <0>        -0.0525
     30 C21        -5.0063   -1.8616   -0.2633 C.ar      1 <0>         0.0595
     31 C22        -5.4432   -0.1462   -1.9075 C.ar      1 <0>        -0.0604
     32 C23        -5.7410   -1.3902   -1.3512 C.ar      1 <0>        -0.0477
     33 C24        -5.3177   -3.1586    0.3164 C.2       1 <0>         0.3368
     34 H1          5.1050    2.3452   -1.6784 H         1 <0>         0.0279
     35 H2          3.7190    3.4987   -1.4943 H         1 <0>         0.0279
     36 H3          3.6379    0.7697   -2.9252 H         1 <0>         0.0279
     37 H4          2.2554    1.9276   -2.7576 H         1 <0>         0.0279
     38 H5          2.8023   -1.2381   -1.2474 H         1 <0>         0.0658
     39 H6          5.3442    1.5188    0.9183 H         1 <0>         0.0622
     40 H7          0.9344    0.5414   -1.1060 H         1 <0>         0.1562
     41 H8          6.5960   -0.3861    1.8927 H         1 <0>         0.0655
     42 H9          0.3177    2.9895    1.6022 H         1 <0>         0.0652
     43 H10        -1.8496    3.3332    2.5391 H         1 <0>         0.0622
     44 H11        -4.1410    2.8615    2.6627 H         1 <0>         0.0278
     45 H12        -4.5551    1.1824    2.3282 H         1 <0>         0.0278
     46 H13        -4.8765    2.4547    1.1145 H         1 <0>         0.0278
     47 H14        -3.3978   -1.4535    1.1167 H         1 <0>         0.0632
     48 H15        -4.1913    1.5940   -1.8213 H         1 <0>         0.0624
     49 H16        -6.0152    0.2214   -2.7544 H         1 <0>         0.0618
     50 H17        -6.5529   -1.9584   -1.7963 H         1 <0>         0.0626
     51 H18        -6.5525   -4.6514    0.0800 H         1 <0>         0.2954
@<TRIPOS>BOND
     1    1   21 1
     2    2   21 1
     3    3   14 2
     4    4   17 1
     5    4   21 1
     6    5   19 1
     7    5   21 1
     8    6   33 1
     9    6   51 1
    10    7   33 2
    11    8   14 am
    12    8   20 1
    13    8   40 1
    14    9   20 ar
    15    9   23 ar
    16   10   11 1
    17   10   12 1
    18   10   13 1
    19   10   14 1
    20   11   12 1
    21   11   34 1
    22   11   35 1
    23   12   36 1
    24   12   37 1
    25   13   15 ar
    26   13   16 ar
    27   15   17 ar
    28   15   38 1
    29   16   18 ar
    30   16   39 1
    31   17   19 ar
    32   18   19 ar
    33   18   41 1
    34   20   22 ar
    35   22   24 ar
    36   22   42 1
    37   23   25 ar
    38   23   26 1
    39   24   25 ar
    40   24   43 1
    41   25   27 1
    42   26   28 ar
    43   26   29 ar
    44   27   44 1
    45   27   45 1
    46   27   46 1
    47   28   30 ar
    48   28   47 1
    49   29   31 ar
    50   29   48 1
    51   30   32 ar
    52   30   33 1
    53   31   32 ar
    54   31   49 1
    55   32   50 1
