@<TRIPOS>MOLECULE
DB09345
   48    49     0     0     0
SMALL
USER_CHARGES

@<TRIPOS>ATOM
      1 O1         -7.8500   -0.9291   -0.2303 O.3       1 <0>        -0.3772
      2 O2         -0.8107    1.8636    0.0819 O.3       1 <0>        -0.4919
      3 O3          4.6880    1.3832   -0.0546 O.3       1 <0>        -0.4920
      4 N1         -5.0380   -0.4894   -0.2045 N.3       1 <0>        -0.2979
      5 C1         -5.9697    0.4573    0.4242 C.3       1 <0>         0.0224
      6 C2         -5.6042   -1.8452   -0.1786 C.3       1 <0>         0.0224
      7 C3         -3.7376   -0.4573    0.4615 C.3       1 <0>         0.0021
      8 C4         -7.3227    0.3972   -0.2790 C.3       1 <0>         0.0604
      9 C5         -6.9653   -1.8508   -0.8686 C.3       1 <0>         0.0604
     10 C6         -2.9088    0.7160   -0.0513 C.3       1 <0>        -0.0058
     11 C7         -1.5377    0.7626    0.6093 C.3       1 <0>         0.0907
     12 C8          0.5544    1.7443    0.0478 C.ar      1 <0>         0.1207
     13 C9          6.5536   -0.1073   -0.2872 C.3       1 <0>        -0.0189
     14 C10         5.2463    0.1678    0.4424 C.3       1 <0>         0.0896
     15 C11         7.2001   -1.4063    0.1853 C.3       1 <0>        -0.0528
     16 C12         1.2108    0.9707    1.0052 C.ar      1 <0>        -0.0165
     17 C13         1.2871    2.3964   -0.9439 C.ar      1 <0>        -0.0165
     18 C14         3.3326    1.5014   -0.0212 C.ar      1 <0>         0.1207
     19 C15         2.5999    0.8493    0.9706 C.ar      1 <0>        -0.0165
     20 C16         2.6761    2.2749   -0.9785 C.ar      1 <0>        -0.0165
     21 C17         8.4830   -1.6993   -0.5760 C.3       1 <0>        -0.0652
     22 H1         -6.1047    0.2114    1.4858 H         1 <0>         0.0449
     23 H2         -5.5968    1.4845    0.3604 H         1 <0>         0.0449
     24 H3         -4.9435   -2.5464   -0.7010 H         1 <0>         0.0449
     25 H4         -5.7168   -2.1894    0.8578 H         1 <0>         0.0449
     26 H5         -3.8378   -0.4258    1.5540 H         1 <0>         0.0428
     27 H6         -3.1777   -1.3729    0.2279 H         1 <0>         0.0428
     28 H7         -8.0354    1.0565    0.2268 H         1 <0>         0.0572
     29 H8         -7.2511    0.7249   -1.3232 H         1 <0>         0.0572
     30 H9         -6.8808   -1.6000   -1.9330 H         1 <0>         0.0572
     31 H10        -7.4148   -2.8464   -0.7978 H         1 <0>         0.0572
     32 H11        -3.4111    1.6733    0.1301 H         1 <0>         0.0310
     33 H12        -2.7824    0.6476   -1.1399 H         1 <0>         0.0310
     34 H13        -1.6468    0.8907    1.6927 H         1 <0>         0.0697
     35 H14        -1.0333   -0.1905    0.4039 H         1 <0>         0.0697
     36 H15         7.2396    0.7357   -0.1371 H         1 <0>         0.0298
     37 H16         6.3631   -0.1494   -1.3671 H         1 <0>         0.0298
     38 H17         4.5765   -0.6840    0.2666 H         1 <0>         0.0696
     39 H18         5.4297    0.2726    1.5180 H         1 <0>         0.0696
     40 H19         6.5041   -2.2419    0.0470 H         1 <0>         0.0264
     41 H20         7.4222   -1.3432    1.2569 H         1 <0>         0.0264
     42 H21         0.6808    0.4749    1.8130 H         1 <0>         0.0655
     43 H22         0.7808    3.0001   -1.6923 H         1 <0>         0.0655
     44 H23         3.0748    0.2655    1.7536 H         1 <0>         0.0655
     45 H24         3.2416    2.7850   -1.7536 H         1 <0>         0.0655
     46 H25         9.2144   -0.8971   -0.4352 H         1 <0>         0.0230
     47 H26         8.9300   -2.6329   -0.2204 H         1 <0>         0.0230
     48 H27         8.2881   -1.8028   -1.6482 H         1 <0>         0.0230
@<TRIPOS>BOND
     1    1    8 1
     2    1    9 1
     3    2   11 1
     4    2   12 1
     5    3   14 1
     6    3   18 1
     7    4    5 1
     8    4    6 1
     9    4    7 1
    10    5    8 1
    11    5   22 1
    12    5   23 1
    13    6    9 1
    14    6   24 1
    15    6   25 1
    16    7   10 1
    17    7   26 1
    18    7   27 1
    19    8   28 1
    20    8   29 1
    21    9   30 1
    22    9   31 1
    23   10   11 1
    24   10   32 1
    25   10   33 1
    26   11   34 1
    27   11   35 1
    28   12   16 ar
    29   12   17 ar
    30   13   14 1
    31   13   15 1
    32   13   36 1
    33   13   37 1
    34   14   38 1
    35   14   39 1
    36   15   21 1
    37   15   40 1
    38   15   41 1
    39   16   19 ar
    40   16   42 1
    41   17   20 ar
    42   17   43 1
    43   18   19 ar
    44   18   20 ar
    45   19   44 1
    46   20   45 1
    47   21   46 1
    48   21   47 1
    49   21   48 1
