@<TRIPOS>MOLECULE
DB09124
   57    60     0     0     0
SMALL
USER_CHARGES

@<TRIPOS>ATOM
      1 O1         -5.4117    0.3576    0.8601 O.2       1 <0>        -0.2971
      2 O2          6.3566   -0.8183   -1.2236 O.2       1 <0>        -0.2927
      3 C1         -2.0379   -0.1598    0.2087 C.3       1 <0>        -0.0166
      4 C2         -1.0784    1.0237   -0.0875 C.3       1 <0>        -0.0282
      5 C3          0.3315    0.8013    0.4830 C.3       1 <0>        -0.0154
      6 C4         -3.3719    0.3973   -0.3924 C.3       1 <0>         0.0315
      7 C5          0.9245   -0.4742   -0.1826 C.3       1 <0>        -0.0251
      8 C6         -1.4474   -1.4238   -0.4412 C.3       1 <0>        -0.0462
      9 C7         -1.8770    2.2399    0.3691 C.3       1 <0>        -0.0482
     10 C8         -0.0031   -1.6973    0.0254 C.3       1 <0>        -0.0483
     11 C9         -3.3337    1.9031    0.0001 C.3       1 <0>        -0.0401
     12 C10         2.4267   -0.6842    0.2209 C.3       1 <0>        -0.0029
     13 C11        -2.2131   -0.4237    1.7366 C.3       1 <0>        -0.0584
     14 C12         1.2512    1.9748    0.2844 C.2       1 <0>        -0.0772
     15 C13        -3.5105    0.2532   -1.9175 C.3       1 <0>        -0.0523
     16 C14         3.2292    0.5726   -0.1844 C.2       1 <0>        -0.0353
     17 C15        -4.5967   -0.2671    0.1828 C.2       1 <0>         0.1367
     18 C16         2.9809   -1.9244   -0.5334 C.3       1 <0>        -0.0363
     19 C17         2.5575    1.8792   -0.0294 C.2       1 <0>        -0.0503
     20 C18         2.5869   -0.9086    1.7438 C.3       1 <0>        -0.0552
     21 C19         4.4899   -2.0763   -0.4265 C.3       1 <0>         0.0107
     22 C20         4.4824    0.4848   -0.6713 C.2       1 <0>        -0.0153
     23 C21        -4.7750   -1.7314   -0.1146 C.3       1 <0>        -0.0055
     24 C22         5.1935   -0.8079   -0.8230 C.2       1 <0>         0.1564
     25 C23         3.3609    3.1467   -0.1875 C.3       1 <0>        -0.0397
     26 H1         -0.9602    1.1242   -1.1776 H         1 <0>         0.0312
     27 H2          0.2539    0.6658    1.5664 H         1 <0>         0.0349
     28 H3          0.9243   -0.2959   -1.2717 H         1 <0>         0.0315
     29 H4         -1.4146   -1.3180   -1.5315 H         1 <0>         0.0271
     30 H5         -2.0519   -2.3101   -0.2325 H         1 <0>         0.0271
     31 H6         -1.5496    3.1578   -0.1298 H         1 <0>         0.0269
     32 H7         -1.7814    2.4004    1.4490 H         1 <0>         0.0269
     33 H8         -0.0018   -2.0061    1.0754 H         1 <0>         0.0269
     34 H9          0.3660   -2.5536   -0.5493 H         1 <0>         0.0269
     35 H10        -3.9696    2.1634    0.8528 H         1 <0>         0.0275
     36 H11        -3.6626    2.5373   -0.8321 H         1 <0>         0.0275
     37 H12        -2.6959    0.4127    2.2526 H         1 <0>         0.0235
     38 H13        -2.8219   -1.3124    1.9266 H         1 <0>         0.0235
     39 H14        -1.2650   -0.6005    2.2500 H         1 <0>         0.0235
     40 H15         0.8203    2.9609    0.4403 H         1 <0>         0.0578
     41 H16        -2.7706    0.8624   -2.4479 H         1 <0>         0.0239
     42 H17        -3.3875   -0.7717   -2.2764 H         1 <0>         0.0239
     43 H18        -4.4977    0.5935   -2.2546 H         1 <0>         0.0239
     44 H19         2.7147   -1.8529   -1.5973 H         1 <0>         0.0278
     45 H20         2.5216   -2.8457   -0.1561 H         1 <0>         0.0278
     46 H21         2.1865   -0.0796    2.3353 H         1 <0>         0.0238
     47 H22         2.0791   -1.8230    2.0676 H         1 <0>         0.0238
     48 H23         3.6402   -1.0044    2.0308 H         1 <0>         0.0238
     49 H24         4.8155   -2.8769   -1.1002 H         1 <0>         0.0345
     50 H25         4.7986   -2.3436    0.5888 H         1 <0>         0.0345
     51 H26         5.0582    1.3536   -0.9720 H         1 <0>         0.0655
     52 H27        -4.7065   -1.9582   -1.1776 H         1 <0>         0.0306
     53 H28        -4.0807   -2.3447    0.4568 H         1 <0>         0.0306
     54 H29        -5.7855   -2.0189    0.1979 H         1 <0>         0.0306
     55 H30         3.7165    3.2554   -1.2177 H         1 <0>         0.0278
     56 H31         4.2208    3.1500    0.4913 H         1 <0>         0.0278
     57 H32         2.7719    4.0418    0.0427 H         1 <0>         0.0278
@<TRIPOS>BOND
     1    1   17 2
     2    2   24 2
     3    3    4 1
     4    3    6 1
     5    3    8 1
     6    3   13 1
     7    4    5 1
     8    4    9 1
     9    4   26 1
    10    5    7 1
    11    5   14 1
    12    5   27 1
    13    6   11 1
    14    6   15 1
    15    6   17 1
    16    7   10 1
    17    7   12 1
    18    7   28 1
    19    8   10 1
    20    8   29 1
    21    8   30 1
    22    9   11 1
    23    9   31 1
    24    9   32 1
    25   10   33 1
    26   10   34 1
    27   11   35 1
    28   11   36 1
    29   12   16 1
    30   12   18 1
    31   12   20 1
    32   13   37 1
    33   13   38 1
    34   13   39 1
    35   14   19 2
    36   14   40 1
    37   15   41 1
    38   15   42 1
    39   15   43 1
    40   16   19 1
    41   16   22 2
    42   17   23 1
    43   18   21 1
    44   18   44 1
    45   18   45 1
    46   19   25 1
    47   20   46 1
    48   20   47 1
    49   20   48 1
    50   21   24 1
    51   21   49 1
    52   21   50 1
    53   22   24 1
    54   22   51 1
    55   23   52 1
    56   23   53 1
    57   23   54 1
    58   25   55 1
    59   25   56 1
    60   25   57 1
