@<TRIPOS>MOLECULE
DB09076
   66    70     0     0     0
SMALL
USER_CHARGES

@<TRIPOS>ATOM
      1 O1         -3.7965    0.0127   -2.0453 O.3       1 <0>        -0.3787
      2 O2          4.2871    0.2415   -0.1010 O.3       1 <0>        -0.3699
      3 N1          0.6460    0.7702   -0.7207 N.4       1 <0>         0.2450
      4 C1         -1.8897    0.2302   -0.6860 C.3       1 <0>         0.0222
      5 C2         -1.1171   -0.8094   -1.5188 C.3       1 <0>        -0.0032
      6 C3         -1.3066    0.2256    0.7393 C.3       1 <0>        -0.0032
      7 C4         -1.6310    1.6183   -1.3006 C.3       1 <0>        -0.0032
      8 C5          0.3787   -0.4941   -1.5446 C.3       1 <0>        -0.0294
      9 C6          0.1893    0.5412    0.7242 C.3       1 <0>        -0.0294
     10 C7         -0.1371    1.9428   -1.3211 C.3       1 <0>        -0.0294
     11 C8         -3.3847   -0.0881   -0.6656 C.3       1 <0>         0.1220
     12 C9          2.1338    1.0870   -0.7412 C.3       1 <0>        -0.0061
     13 C10        -4.1217    0.9696    0.1736 C.ar      1 <0>        -0.0112
     14 C11        -3.7501   -1.5062   -0.1966 C.ar      1 <0>        -0.0112
     15 C12         2.8989   -0.0638   -0.1178 C.3       1 <0>         0.0880
     16 C13        -4.4380    2.1661   -0.4191 C.ar      1 <0>        -0.0555
     17 C14        -2.7439   -2.3220    0.2567 C.ar      1 <0>        -0.0555
     18 C15        -4.4286    0.6681    1.4766 C.ar      1 <0>        -0.0555
     19 C16        -5.0661   -1.8919   -0.2531 C.ar      1 <0>        -0.0555
     20 C17        -5.1061    3.1251    0.3423 C.ar      1 <0>        -0.0614
     21 C18        -3.0756   -3.6084    0.6818 C.ar      1 <0>        -0.0614
     22 C19        -5.0969    1.6271    2.2378 C.ar      1 <0>        -0.0614
     23 C20        -5.3977   -3.1783    0.1722 C.ar      1 <0>        -0.0614
     24 C21         5.0449   -0.8085    0.4846 C.3       1 <0>         0.0729
     25 C22        -5.4355    2.8555    1.6707 C.ar      1 <0>        -0.0617
     26 C23        -4.4026   -4.0364    0.6394 C.ar      1 <0>        -0.0617
     27 C24         6.4967   -0.4297    0.4739 C.ar      1 <0>        -0.0219
     28 C25         7.2889   -0.7699   -0.6170 C.ar      1 <0>        -0.0564
     29 C26         7.0368    0.2587    1.5546 C.ar      1 <0>        -0.0564
     30 C27         8.6385   -0.4175   -0.6272 C.ar      1 <0>        -0.0614
     31 C28         8.3864    0.6111    1.5442 C.ar      1 <0>        -0.0614
     32 C29         9.1872    0.2729    0.4533 C.ar      1 <0>        -0.0617
     33 H1         -1.4547   -0.7009   -2.5621 H         1 <0>         0.0323
     34 H2         -1.2252   -1.8806   -1.3828 H         1 <0>         0.0323
     35 H3         -1.7491    1.0643    1.2958 H         1 <0>         0.0323
     36 H4         -1.4888   -0.6077    1.4138 H         1 <0>         0.0323
     37 H5         -2.0715    2.4293   -0.7170 H         1 <0>         0.0323
     38 H6         -2.0207    1.7034   -2.3220 H         1 <0>         0.0323
     39 H7          0.9023   -1.3358   -1.0867 H         1 <0>         0.0815
     40 H8          0.7530   -0.3294   -2.5611 H         1 <0>         0.0815
     41 H9          0.4375    1.4322    1.3116 H         1 <0>         0.0815
     42 H10         0.7032   -0.3320    1.1303 H         1 <0>         0.0815
     43 H11         0.2245    2.0926   -2.3449 H         1 <0>         0.0815
     44 H12         0.0932    2.8352   -0.7275 H         1 <0>         0.0815
     45 H13         2.2952    2.0185   -0.1858 H         1 <0>         0.0838
     46 H14         2.4383    1.2546   -1.7811 H         1 <0>         0.0838
     47 H15         2.6176   -0.2398    0.9214 H         1 <0>         0.0613
     48 H16         2.7910   -0.9894   -0.6870 H         1 <0>         0.0613
     49 H17        -4.7452    0.2219   -2.0821 H         1 <0>         0.2111
     50 H18        -4.2256    2.3972   -1.4574 H         1 <0>         0.0621
     51 H19        -1.6965   -2.1269    0.3863 H         1 <0>         0.0621
     52 H20        -4.1543   -0.2580    1.9689 H         1 <0>         0.0621
     53 H21        -5.8513   -1.2383   -0.6192 H         1 <0>         0.0621
     54 H22        -5.3759    4.0793   -0.1008 H         1 <0>         0.0618
     55 H23        -2.3042   -4.2765    1.0546 H         1 <0>         0.0618
     56 H24        -5.3466    1.4209    3.2745 H         1 <0>         0.0618
     57 H25        -6.4307   -3.5119    0.1386 H         1 <0>         0.0618
     58 H26         4.8956   -1.7402   -0.0755 H         1 <0>         0.0610
     59 H27         4.7113   -0.9871    1.5147 H         1 <0>         0.0610
     60 H28        -5.9553    3.6024    2.2635 H         1 <0>         0.0618
     61 H29        -4.6611   -5.0374    0.9722 H         1 <0>         0.0618
     62 H30         6.8713   -1.3057   -1.4650 H         1 <0>         0.0621
     63 H31         6.4216    0.5292    2.4084 H         1 <0>         0.0621
     64 H32         9.2619   -0.6801   -1.4768 H         1 <0>         0.0618
     65 H33         8.8137    1.1495    2.3852 H         1 <0>         0.0618
     66 H34        10.2379    0.5477    0.4452 H         1 <0>         0.0618
@<TRIPOS>BOND
     1    1   11 1
     2    1   49 1
     3    2   15 1
     4    2   24 1
     5    3    8 1
     6    3    9 1
     7    3   10 1
     8    3   12 1
     9    4    5 1
    10    4    6 1
    11    4    7 1
    12    4   11 1
    13    5    8 1
    14    5   33 1
    15    5   34 1
    16    6    9 1
    17    6   35 1
    18    6   36 1
    19    7   10 1
    20    7   37 1
    21    7   38 1
    22    8   39 1
    23    8   40 1
    24    9   41 1
    25    9   42 1
    26   10   43 1
    27   10   44 1
    28   11   13 1
    29   11   14 1
    30   12   15 1
    31   12   45 1
    32   12   46 1
    33   13   16 ar
    34   13   18 ar
    35   14   17 ar
    36   14   19 ar
    37   15   47 1
    38   15   48 1
    39   16   20 ar
    40   16   50 1
    41   17   21 ar
    42   17   51 1
    43   18   22 ar
    44   18   52 1
    45   19   23 ar
    46   19   53 1
    47   20   25 ar
    48   20   54 1
    49   21   26 ar
    50   21   55 1
    51   22   25 ar
    52   22   56 1
    53   23   26 ar
    54   23   57 1
    55   24   27 1
    56   24   58 1
    57   24   59 1
    58   25   60 1
    59   26   61 1
    60   27   28 ar
    61   27   29 ar
    62   28   30 ar
    63   28   62 1
    64   29   31 ar
    65   29   63 1
    66   30   32 ar
    67   30   64 1
    68   31   32 ar
    69   31   65 1
    70   32   66 1
