@<TRIPOS>MOLECULE
DB09091
   56    59     0     0     0
SMALL
USER_CHARGES

@<TRIPOS>ATOM
      1 S1          6.9901    1.2477   -0.6298 S.3       1 <0>        -0.1705
      2 O1          3.0626   -0.0169   -2.0724 O.3       1 <0>        -0.3805
      3 O2         -0.4561    2.1805    1.0892 O.3       1 <0>        -0.3915
      4 O3          4.1152    1.9849   -0.0368 O.2       1 <0>        -0.2935
      5 O4         -6.4797   -0.3258   -1.5980 O.2       1 <0>        -0.2927
      6 C1          1.7899    0.3375    0.0013 C.3       1 <0>         0.0091
      7 C2          0.9721   -0.9497   -0.2406 C.3       1 <0>        -0.0292
      8 C3         -0.4434   -0.8999    0.3537 C.3       1 <0>        -0.0314
      9 C4         -1.2209    0.2911   -0.2952 C.3       1 <0>        -0.0028
     10 C5          3.1344   -0.0869   -0.6515 C.3       1 <0>         0.1300
     11 C6          1.0408    1.4972   -0.6865 C.3       1 <0>        -0.0179
     12 C7         -2.7327    0.3670    0.1700 C.3       1 <0>        -0.0049
     13 C8         -0.4261    1.6321   -0.2209 C.3       1 <0>         0.0597
     14 C9          1.9200   -2.0603    0.2044 C.3       1 <0>        -0.0463
     15 C10         3.3164   -1.5608   -0.2219 C.3       1 <0>        -0.0162
     16 C11        -1.1793   -2.2235    0.0923 C.3       1 <0>        -0.0459
     17 C12         2.0174    0.6456    1.5072 C.3       1 <0>        -0.0562
     18 C13        -3.3785   -1.0163    0.0122 C.2       1 <0>        -0.0600
     19 C14        -2.6150   -2.1813    0.5929 C.3       1 <0>        -0.0305
     20 C15        -3.4638    1.4016   -0.7346 C.3       1 <0>        -0.0366
     21 C16        -2.9047    0.7835    1.6483 C.3       1 <0>        -0.0555
     22 C17         4.2918    0.7921   -0.2802 C.2       1 <0>         0.1746
     23 C18        -4.9794    1.2969   -0.6761 C.3       1 <0>         0.0107
     24 C19        -4.5716   -1.2294   -0.5676 C.2       1 <0>        -0.0194
     25 C20        -5.4174   -0.1017   -1.0218 C.2       1 <0>         0.1561
     26 C21         5.6437    0.1099   -0.2315 C.3       1 <0>         0.0521
     27 H1          0.8436   -1.0810   -1.3281 H         1 <0>         0.0310
     28 H2         -0.3892   -0.7608    1.4378 H         1 <0>         0.0307
     29 H3         -1.2552    0.0521   -1.3718 H         1 <0>         0.0337
     30 H4          1.0267    1.3430   -1.7725 H         1 <0>         0.0297
     31 H5          1.5711    2.4404   -0.5102 H         1 <0>         0.0297
     32 H6         -0.9094    2.3664   -0.8752 H         1 <0>         0.0596
     33 H7          1.6828   -3.0182   -0.2696 H         1 <0>         0.0269
     34 H8          1.8803   -2.2081    1.2897 H         1 <0>         0.0269
     35 H9          3.9895   -1.6889    0.6321 H         1 <0>         0.0297
     36 H10         3.6936   -2.1815   -1.0428 H         1 <0>         0.0297
     37 H11        -0.6586   -3.0482    0.5929 H         1 <0>         0.0271
     38 H12        -1.1737   -2.4515   -0.9818 H         1 <0>         0.0271
     39 H13         2.3903    1.6640    1.6585 H         1 <0>         0.0236
     40 H14         1.1036    0.5651    2.0996 H         1 <0>         0.0236
     41 H15         2.7395   -0.0347    1.9713 H         1 <0>         0.0236
     42 H16        -2.6208   -2.1032    1.6871 H         1 <0>         0.0310
     43 H17        -3.0996   -3.1355    0.3519 H         1 <0>         0.0310
     44 H18        -3.1557    1.2566   -1.7797 H         1 <0>         0.0278
     45 H19        -3.1726    2.4241   -0.4657 H         1 <0>         0.0278
     46 H20        -2.2191    0.2479    2.3123 H         1 <0>         0.0238
     47 H21        -2.7413    1.8558    1.7931 H         1 <0>         0.0238
     48 H22        -3.9205    0.5787    2.0084 H         1 <0>         0.0238
     49 H23         3.8514   -0.4476   -2.4434 H         1 <0>         0.2108
     50 H24        -5.4160    1.9888   -1.4048 H         1 <0>         0.0345
     51 H25        -5.3681    1.5542    0.3142 H         1 <0>         0.0345
     52 H26         0.0069    3.0350    1.0643 H         1 <0>         0.2098
     53 H27        -4.9905   -2.2248   -0.6696 H         1 <0>         0.0652
     54 H28         5.6920   -0.6950   -0.9685 H         1 <0>         0.0452
     55 H29         5.8032   -0.2983    0.7699 H         1 <0>         0.0452
     56 H30         6.7899    2.0898    0.3946 H         1 <0>         0.1020
@<TRIPOS>BOND
     1    1   26 1
     2    1   56 1
     3    2   10 1
     4    2   49 1
     5    3   13 1
     6    3   52 1
     7    4   22 2
     8    5   25 2
     9    6    7 1
    10    6   10 1
    11    6   11 1
    12    6   17 1
    13    7    8 1
    14    7   14 1
    15    7   27 1
    16    8    9 1
    17    8   16 1
    18    8   28 1
    19    9   12 1
    20    9   13 1
    21    9   29 1
    22   10   15 1
    23   10   22 1
    24   11   13 1
    25   11   30 1
    26   11   31 1
    27   12   18 1
    28   12   20 1
    29   12   21 1
    30   13   32 1
    31   14   15 1
    32   14   33 1
    33   14   34 1
    34   15   35 1
    35   15   36 1
    36   16   19 1
    37   16   37 1
    38   16   38 1
    39   17   39 1
    40   17   40 1
    41   17   41 1
    42   18   19 1
    43   18   24 2
    44   19   42 1
    45   19   43 1
    46   20   23 1
    47   20   44 1
    48   20   45 1
    49   21   46 1
    50   21   47 1
    51   21   48 1
    52   22   26 1
    53   23   25 1
    54   23   50 1
    55   23   51 1
    56   24   25 1
    57   24   53 1
    58   26   54 1
    59   26   55 1
