@<TRIPOS>MOLECULE
DB09080
   54    56     0     0     0
SMALL
USER_CHARGES

@<TRIPOS>ATOM
      1 O1         -2.5798   -1.2638    2.8066 O.3       1 <0>        -0.3858
      2 O2         -4.0570    1.6077    0.8619 O.3       1 <0>        -0.4805
      3 O3         -4.3183   -3.3066   -1.6297 O.3       1 <0>        -0.5067
      4 O4          7.3221   -0.3572   -0.1735 O.3       1 <0>        -0.4951
      5 O5         -6.6738    3.3559   -0.9145 O.2       1 <0>        -0.2717
      6 N1         -0.5043    0.2641    0.1173 N.3       1 <0>        -0.3080
      7 N2         -5.9527    1.1905   -1.1952 N.am      1 <0>        -0.2797
      8 C1          0.8542    0.0150   -0.3403 C.3       1 <0>         0.0176
      9 C2          1.8082    0.2407    0.8623 C.3       1 <0>        -0.0098
     10 C3         -0.8523   -0.6299    1.2194 C.3       1 <0>         0.0267
     11 C4          1.1298    0.9894   -1.4937 C.3       1 <0>        -0.0467
     12 C5          0.8999   -1.4291   -0.8576 C.3       1 <0>        -0.0467
     13 C6         -2.2927   -0.3873    1.7097 C.3       1 <0>         0.0962
     14 C7          3.2854    0.0810    0.5851 C.ar      1 <0>        -0.0454
     15 C8         -3.3006   -0.6143    0.6310 C.ar      1 <0>         0.0290
     16 C9         -4.1844    0.3944    0.2463 C.ar      1 <0>         0.1482
     17 C10         3.8724   -1.1637    0.7393 C.ar      1 <0>        -0.0551
     18 C11         4.0221    1.1821    0.1818 C.ar      1 <0>        -0.0551
     19 C12        -3.3521   -1.8598    0.0041 C.ar      1 <0>        -0.0109
     20 C13        -5.1032    0.1616   -0.7757 C.ar      1 <0>         0.0795
     21 C14        -4.2753   -2.0922   -1.0159 C.ar      1 <0>         0.1192
     22 C15        -5.1493   -1.0799   -1.4127 C.ar      1 <0>         0.0046
     23 C16         5.2354   -1.3117    0.4830 C.ar      1 <0>        -0.0197
     24 C17         5.3852    1.0343   -0.0746 C.ar      1 <0>        -0.0197
     25 C18        -5.1980    2.4368    0.7499 C.3       1 <0>         0.1656
     26 C19         5.9918   -0.2126    0.0760 C.ar      1 <0>         0.1201
     27 C20        -5.9952    2.4008   -0.5426 C.2       1 <0>         0.2549
     28 C21         8.0357    0.8073   -0.5860 C.3       1 <0>         0.0788
     29 H1          1.6153   -0.4578    1.6835 H         1 <0>         0.0331
     30 H2          1.6439    1.2411    1.2890 H         1 <0>         0.0331
     31 H3         -0.6071    1.2326    0.4198 H         1 <0>         0.1225
     32 H4         -0.2440   -0.4568    2.1120 H         1 <0>         0.0453
     33 H5         -0.7480   -1.6911    0.9783 H         1 <0>         0.0453
     34 H6          2.1012    0.7987   -1.9619 H         1 <0>         0.0247
     35 H7          0.3741    0.8933   -2.2833 H         1 <0>         0.0247
     36 H8          1.1186    2.0308   -1.1516 H         1 <0>         0.0247
     37 H9          1.7921   -1.5842   -1.4771 H         1 <0>         0.0247
     38 H10         0.0394   -1.6622   -1.4973 H         1 <0>         0.0247
     39 H11         0.9534   -2.1790   -0.0619 H         1 <0>         0.0247
     40 H12        -2.3463    0.6275    2.1189 H         1 <0>         0.0657
     41 H13         3.2950   -2.0268    1.0575 H         1 <0>         0.0621
     42 H14         3.5592    2.1578    0.0640 H         1 <0>         0.0621
     43 H15        -2.6828   -2.6607    0.3079 H         1 <0>         0.0659
     44 H16        -3.5288   -1.1927    3.0082 H         1 <0>         0.2103
     45 H17        -5.8592   -1.2631   -2.2156 H         1 <0>         0.0674
     46 H18         5.7026   -2.2854    0.6024 H         1 <0>         0.0654
     47 H19         5.9130    1.9290   -0.3867 H         1 <0>         0.0654
     48 H20        -6.5378    1.0414   -2.0119 H         1 <0>         0.1550
     49 H21        -4.8587    3.4681    0.8971 H         1 <0>         0.0795
     50 H22        -5.8832    2.1977    1.5723 H         1 <0>         0.0795
     51 H23        -3.6441   -3.8850   -1.2337 H         1 <0>         0.2921
     52 H24         9.0780    0.5100   -0.7405 H         1 <0>         0.0660
     53 H25         7.6662    1.1871   -1.5446 H         1 <0>         0.0660
     54 H26         8.0350    1.5768    0.1935 H         1 <0>         0.0660
@<TRIPOS>BOND
     1    1   13 1
     2    1   44 1
     3    2   16 1
     4    2   25 1
     5    3   21 1
     6    3   51 1
     7    4   26 1
     8    4   28 1
     9    5   27 2
    10    6    8 1
    11    6   10 1
    12    6   31 1
    13    7   20 1
    14    7   27 am
    15    7   48 1
    16    8    9 1
    17    8   11 1
    18    8   12 1
    19    9   14 1
    20    9   29 1
    21    9   30 1
    22   10   13 1
    23   10   32 1
    24   10   33 1
    25   11   34 1
    26   11   35 1
    27   11   36 1
    28   12   37 1
    29   12   38 1
    30   12   39 1
    31   13   15 1
    32   13   40 1
    33   14   17 ar
    34   14   18 ar
    35   15   16 ar
    36   15   19 ar
    37   16   20 ar
    38   17   23 ar
    39   17   41 1
    40   18   24 ar
    41   18   42 1
    42   19   21 ar
    43   19   43 1
    44   20   22 ar
    45   21   22 ar
    46   22   45 1
    47   23   26 ar
    48   23   46 1
    49   24   26 ar
    50   24   47 1
    51   25   27 1
    52   25   49 1
    53   25   50 1
    54   28   52 1
    55   28   53 1
    56   28   54 1
