@<TRIPOS>MOLECULE
DB09531
   20    19     0     0     0
SMALL
USER_CHARGES

@<TRIPOS>ATOM
      1 F1          1.2060    0.5161   -2.0382 F         1 <0>        -0.1919
      2 F2         -0.2265    1.7430   -0.9654 F         1 <0>        -0.1919
      3 F3          0.2264   -1.7430   -0.9655 F         1 <0>        -0.1919
      4 F4         -1.2062   -0.5162   -2.0382 F         1 <0>        -0.1919
      5 F5          0.7964    0.9512    1.4296 F         1 <0>        -0.1889
      6 F6          2.2081    1.8489    0.0451 F         1 <0>        -0.1889
      7 F7         -2.2084   -1.8489    0.0452 F         1 <0>        -0.1889
      8 F8         -0.7965   -0.9512    1.4297 F         1 <0>        -0.1889
      9 F9          3.2341   -0.1988    1.5408 F         1 <0>        -0.1648
     10 F10         1.7498   -1.5653    0.7131 F         1 <0>        -0.1648
     11 F11         3.2098   -0.6286   -0.5986 F         1 <0>        -0.1648
     12 F12        -3.2096    0.6287   -0.5986 F         1 <0>        -0.1648
     13 F13        -3.2338    0.1990    1.5412 F         1 <0>        -0.1648
     14 F14        -1.7495    1.5654    0.7127 F         1 <0>        -0.1648
     15 C1          0.4862    0.5851   -0.8797 C.3       1 <0>         0.3869
     16 C2         -0.4864   -0.5852   -0.8796 C.3       1 <0>         0.3869
     17 C3          1.4682    0.7255    0.2730 C.3       1 <0>         0.4087
     18 C4         -1.4682   -0.7255    0.2730 C.3       1 <0>         0.4087
     19 C5          2.4290   -0.4192    0.4801 C.3       1 <0>         0.4603
     20 C6         -2.4288    0.4193    0.4802 C.3       1 <0>         0.4603
@<TRIPOS>BOND
     1    1   15 1
     2    2   15 1
     3    3   16 1
     4    4   16 1
     5    5   17 1
     6    6   17 1
     7    7   18 1
     8    8   18 1
     9    9   19 1
    10   10   19 1
    11   11   19 1
    12   12   20 1
    13   13   20 1
    14   14   20 1
    15   15   16 1
    16   15   17 1
    17   16   18 1
    18   17   19 1
    19   18   20 1
