@<TRIPOS>MOLECULE
DB09499
    7     6     0     0     0
SMALL
USER_CHARGES

@<TRIPOS>ATOM
      1 S1         -0.5360   -0.0001    0.1355 S.o       1 <0>         0.0649
      2 S2         -1.1417   -0.0007   -1.6029 S.2       1 <0>         0.1048
      3 O1          0.4094   -1.3024    0.3540 O.3       1 <0>        -0.2550
      4 O2          0.4087    1.3027    0.3536 O.3       1 <0>        -0.2550
      5 O3         -1.6746   -0.0001    1.0231 O.2       1 <0>        -0.1487
      6 H1          1.2675   -1.2898   -0.1315 H         1 <0>         0.2444
      7 H2          1.2667    1.2905   -0.1318 H         1 <0>         0.2444
@<TRIPOS>BOND
     1    1    2 2
     2    1    3 1
     3    1    4 1
     4    1    5 2
     5    3    6 1
     6    4    7 1
