@<TRIPOS>MOLECULE
DB09123
   48    51     0     0     0
SMALL
USER_CHARGES

@<TRIPOS>ATOM
      1 O1          4.2347   -0.9286   -0.4695 O.3       1 <0>        -0.3870
      2 O2         -6.0593   -0.3609    1.7186 O.2       1 <0>        -0.2927
      3 N1          5.2713   -0.9380    2.9325 N.1       1 <0>        -0.1965
      4 C1          1.8200   -0.4116   -0.6144 C.3       1 <0>         0.0013
      5 C2          1.0038    0.6927    0.0913 C.3       1 <0>        -0.0264
      6 C3          3.1193   -0.4065    0.2493 C.3       1 <0>         0.0844
      7 C4         -0.3277    1.0133   -0.6048 C.3       1 <0>        -0.0156
      8 C5          2.0158    1.8201    0.2736 C.3       1 <0>        -0.0464
      9 C6          0.9702   -1.6937   -0.5904 C.3       1 <0>        -0.0410
     10 C7          3.3556    1.1026    0.5234 C.3       1 <0>        -0.0222
     11 C8         -1.1689   -0.2746   -0.7028 C.2       1 <0>        -0.0627
     12 C9         -0.4077   -1.4804   -1.2467 C.3       1 <0>        -0.0303
     13 C10         2.1781   -0.0705   -2.0903 C.3       1 <0>        -0.0566
     14 C11        -1.0444    2.1623    0.1264 C.3       1 <0>        -0.0422
     15 C12         3.0448   -1.1847    1.5687 C.3       1 <0>         0.0641
     16 C13        -2.4810   -0.2970   -0.3582 C.2       1 <0>        -0.0442
     17 C14        -2.5086    2.2298   -0.2756 C.3       1 <0>        -0.0268
     18 C15        -3.1775    0.9250    0.0666 C.2       1 <0>        -0.0409
     19 C16        -3.3892   -1.5069   -0.4281 C.3       1 <0>        -0.0205
     20 C17         4.2891   -1.0433    2.3237 C.1       1 <0>         0.0654
     21 C18        -4.3496    0.9119    0.7229 C.2       1 <0>        -0.0158
     22 C19        -4.2406   -1.6462    0.8285 C.3       1 <0>         0.0139
     23 C20        -4.9867   -0.3673    1.1187 C.2       1 <0>         0.1567
     24 H1          0.7427    0.3452    1.1033 H         1 <0>         0.0313
     25 H2         -0.1422    1.3570   -1.6301 H         1 <0>         0.0349
     26 H3          1.7527    2.4714    1.1136 H         1 <0>         0.0269
     27 H4          2.0819    2.4483   -0.6218 H         1 <0>         0.0269
     28 H5          0.7961   -2.0252    0.4405 H         1 <0>         0.0275
     29 H6          1.4974   -2.5115   -1.0963 H         1 <0>         0.0275
     30 H7          4.1234    1.5187   -0.1406 H         1 <0>         0.0293
     31 H8          3.6891    1.3141    1.5445 H         1 <0>         0.0293
     32 H9         -0.9599   -2.4147   -1.1302 H         1 <0>         0.0310
     33 H10        -0.2883   -1.3474   -2.3283 H         1 <0>         0.0310
     34 H11         1.3008    0.1301   -2.7098 H         1 <0>         0.0236
     35 H12         2.8258    0.8084   -2.1705 H         1 <0>         0.0236
     36 H13         2.7102   -0.9069   -2.5583 H         1 <0>         0.0236
     37 H14        -0.5549    3.1149   -0.1096 H         1 <0>         0.0274
     38 H15        -0.9712    2.0318    1.2148 H         1 <0>         0.0274
     39 H16         2.9034   -2.2525    1.3621 H         1 <0>         0.0446
     40 H17         2.2060   -0.8573    2.1905 H         1 <0>         0.0446
     41 H18        -2.5991    2.4195   -1.3526 H         1 <0>         0.0313
     42 H19        -2.9854    3.0728    0.2389 H         1 <0>         0.0313
     43 H20         5.0538   -0.6096   -0.0548 H         1 <0>         0.2102
     44 H21        -4.0449   -1.3941   -1.3025 H         1 <0>         0.0317
     45 H22        -2.8512   -2.4461   -0.5661 H         1 <0>         0.0317
     46 H23        -4.8549    1.8259    1.0159 H         1 <0>         0.0655
     47 H24        -3.6225   -1.8898    1.7000 H         1 <0>         0.0348
     48 H25        -4.9703   -2.4505    0.6836 H         1 <0>         0.0348
@<TRIPOS>BOND
     1    1    6 1
     2    1   43 1
     3    2   23 2
     4    3   20 3
     5    4    5 1
     6    4    6 1
     7    4    9 1
     8    4   13 1
     9    5    7 1
    10    5    8 1
    11    5   24 1
    12    6   10 1
    13    6   15 1
    14    7   11 1
    15    7   14 1
    16    7   25 1
    17    8   10 1
    18    8   26 1
    19    8   27 1
    20    9   12 1
    21    9   28 1
    22    9   29 1
    23   10   30 1
    24   10   31 1
    25   11   12 1
    26   11   16 2
    27   12   32 1
    28   12   33 1
    29   13   34 1
    30   13   35 1
    31   13   36 1
    32   14   17 1
    33   14   37 1
    34   14   38 1
    35   15   20 1
    36   15   39 1
    37   15   40 1
    38   16   18 1
    39   16   19 1
    40   17   18 1
    41   17   41 1
    42   17   42 1
    43   18   21 2
    44   19   22 1
    45   19   44 1
    46   19   45 1
    47   21   23 1
    48   21   46 1
    49   22   23 1
    50   22   47 1
    51   22   48 1
