@<TRIPOS>MOLECULE
DB09268
   44    46     0     0     0
SMALL
USER_CHARGES

@<TRIPOS>ATOM
      1 S1          5.3024   -2.6598   -0.5483 S.o2      1 <0>         0.2513
      2 S2         -5.4837   -2.3212   -0.7324 S.o2      1 <0>         0.2513
      3 O1          5.1543   -1.1124   -0.0120 O.3       1 <0>        -0.3250
      4 O2         -4.2602   -2.6600    0.3126 O.3       1 <0>        -0.3250
      5 O3          6.9121   -2.9299   -0.5216 O.3       1 <0>        -0.2222
      6 O4         -6.5553   -3.5271   -0.4829 O.3       1 <0>        -0.2222
      7 O5          4.6839   -3.5540    0.4131 O.2       1 <0>        -0.1077
      8 O6          4.8818   -2.6867   -1.9372 O.2       1 <0>        -0.1077
      9 O7         -6.1133   -1.0755   -0.3344 O.2       1 <0>        -0.1077
     10 O8         -4.9668   -2.4733   -2.0800 O.2       1 <0>        -0.1077
     11 N1         -0.9026    2.2381   -1.0593 N.ar      1 <0>        -0.2589
     12 C1         -0.0057    1.0100    0.8244 C.3       1 <0>         0.0513
     13 C2          1.3579    0.4488    0.6033 C.ar      1 <0>        -0.0339
     14 C3         -1.1713    0.0046    0.6840 C.ar      1 <0>        -0.0339
     15 C4         -0.2968    2.3535    0.1178 C.ar      1 <0>         0.0530
     16 C5          2.0187   -0.2076    1.6413 C.ar      1 <0>        -0.0541
     17 C6         -2.2531    0.1553    1.5083 C.ar      1 <0>        -0.0541
     18 C7          1.9727    0.5807   -0.6420 C.ar      1 <0>        -0.0541
     19 C8         -1.0591   -0.9825   -0.2571 C.ar      1 <0>        -0.0541
     20 C9          0.0870    3.4919    0.7555 C.ar      1 <0>        -0.0395
     21 C10         3.2945   -0.7321    1.4346 C.ar      1 <0>        -0.0167
     22 C11        -3.3048   -0.7522    1.3816 C.ar      1 <0>        -0.0167
     23 C12         3.2485    0.0559   -0.8490 C.ar      1 <0>        -0.0167
     24 C13        -2.1108   -1.8899   -0.3839 C.ar      1 <0>        -0.0167
     25 C14         3.9094   -0.6006    0.1893 C.ar      1 <0>         0.1588
     26 C15        -3.2338   -1.7748    0.4356 C.ar      1 <0>         0.1588
     27 C16        -0.1893    4.6830    0.0931 C.ar      1 <0>        -0.0586
     28 C17        -1.1548    3.4160   -1.6732 C.ar      1 <0>         0.0279
     29 C18        -0.8218    4.6529   -1.1449 C.ar      1 <0>        -0.0436
     30 H1         -0.0216    1.2687    1.8974 H         1 <0>         0.0461
     31 H2          1.5525   -0.3206    2.6167 H         1 <0>         0.0622
     32 H3         -2.3157    0.9495    2.2449 H         1 <0>         0.0622
     33 H4          1.4833    1.0728   -1.4765 H         1 <0>         0.0622
     34 H5         -0.2088   -1.0899   -0.9194 H         1 <0>         0.0622
     35 H6          0.5818    3.4995    1.7188 H         1 <0>         0.0636
     36 H7          3.8041   -1.2409    2.2483 H         1 <0>         0.0655
     37 H8         -4.1758   -0.6572    2.0244 H         1 <0>         0.0655
     38 H9          3.7211    0.1609   -1.8217 H         1 <0>         0.0655
     39 H10        -2.0496   -2.6832   -1.1241 H         1 <0>         0.0655
     40 H11         0.0884    5.6326    0.5404 H         1 <0>         0.0619
     41 H12        -1.6493    3.3381   -2.6359 H         1 <0>         0.0829
     42 H13        -1.0467    5.5687   -1.6794 H         1 <0>         0.0633
     43 H14         7.4654   -2.2159   -0.9170 H         1 <0>         0.2479
     44 H15        -6.1692   -4.4339   -0.4530 H         1 <0>         0.2479
@<TRIPOS>BOND
     1    1    3 1
     2    1    5 1
     3    1    7 2
     4    1    8 2
     5    2    4 1
     6    2    6 1
     7    2    9 2
     8    2   10 2
     9    3   25 1
    10    4   26 1
    11    5   43 1
    12    6   44 1
    13   11   15 ar
    14   11   28 ar
    15   12   13 1
    16   12   14 1
    17   12   15 1
    18   12   30 1
    19   13   16 ar
    20   13   18 ar
    21   14   17 ar
    22   14   19 ar
    23   15   20 ar
    24   16   21 ar
    25   16   31 1
    26   17   22 ar
    27   17   32 1
    28   18   23 ar
    29   18   33 1
    30   19   24 ar
    31   19   34 1
    32   20   27 ar
    33   20   35 1
    34   21   25 ar
    35   21   36 1
    36   22   26 ar
    37   22   37 1
    38   23   25 ar
    39   23   38 1
    40   24   26 ar
    41   24   39 1
    42   27   29 ar
    43   27   40 1
    44   28   29 ar
    45   28   41 1
    46   29   42 1
