@<TRIPOS>MOLECULE
DB09134
   57    57     0     0     0
SMALL
USER_CHARGES

@<TRIPOS>ATOM
      1 I1         -2.9301    1.8482    0.9892 I         1 <0>        -0.0411
      2 I2          2.9254    1.5927   -0.7144 I         1 <0>        -0.0411
      3 I3         -0.2577   -3.5614    0.0523 I         1 <0>        -0.0422
      4 O1          5.7147   -0.9071    1.0777 O.3       1 <0>        -0.3880
      5 O2         -5.9438   -0.3147   -0.8697 O.3       1 <0>        -0.3880
      6 O3          2.0042    4.9952    2.3977 O.3       1 <0>        -0.3934
      7 O4          2.4243   -1.8749   -1.7853 O.2       1 <0>        -0.2701
      8 O5         -2.7641   -1.6824    1.9547 O.2       1 <0>        -0.2701
      9 O6         -0.2207    4.7458   -1.0701 O.2       1 <0>        -0.2727
     10 O7          7.8552   -1.6545   -0.5347 O.3       1 <0>        -0.3924
     11 O8         -8.1475   -0.9004    0.7242 O.3       1 <0>        -0.3924
     12 O9         -1.0161    3.7054   -3.2845 O.3       1 <0>        -0.3858
     13 N1          0.0480    2.7521    0.1557 N.am      1 <0>        -0.2654
     14 N2          3.0834   -1.9235    0.4374 N.am      1 <0>        -0.3088
     15 N3         -3.4293   -1.6025   -0.2660 N.am      1 <0>        -0.3088
     16 C1         -0.0196    1.3515    0.1334 C.ar      1 <0>         0.0642
     17 C2          1.0386   -0.7887   -0.2366 C.ar      1 <0>         0.0654
     18 C3         -1.2795   -0.6876    0.4366 C.ar      1 <0>         0.0654
     19 C4         -1.2123    0.7054    0.4588 C.ar      1 <0>         0.0489
     20 C5          1.1059    0.6043   -0.2142 C.ar      1 <0>         0.0489
     21 C6          0.4414    3.4702    1.4026 C.3       1 <0>         0.0431
     22 C7         -0.1541   -1.4347    0.0888 C.ar      1 <0>         0.0397
     23 C8          4.3015   -2.6743    0.2346 C.3       1 <0>         0.0401
     24 C9         -4.7085   -2.2350   -0.0841 C.3       1 <0>         0.0401
     25 C10         2.2199   -1.5726   -0.6012 C.2       1 <0>         0.2462
     26 C11        -2.5495   -1.3753    0.7849 C.2       1 <0>         0.2462
     27 C12         5.5119   -1.7819   -0.0328 C.3       1 <0>         0.0936
     28 C13        -5.8273   -1.2383    0.2131 C.3       1 <0>         0.0936
     29 C14        -0.2598    3.5129   -1.0191 C.2       1 <0>         0.2454
     30 C15         1.6914    4.3054    1.1945 C.3       1 <0>         0.0603
     31 C16         6.7966   -2.5695   -0.2691 C.3       1 <0>         0.0716
     32 C17        -7.1822   -1.9049    0.4284 C.3       1 <0>         0.0716
     33 C18        -0.7060    2.7754   -2.2685 C.3       1 <0>         0.1207
     34 H1         -0.3902    4.1270    1.6847 H         1 <0>         0.0491
     35 H2          0.5805    2.7527    2.2199 H         1 <0>         0.0491
     36 H3          4.4557   -3.2532    1.1519 H         1 <0>         0.0488
     37 H4          4.1539   -3.3750   -0.5942 H         1 <0>         0.0488
     38 H5         -4.9189   -2.7680   -1.0180 H         1 <0>         0.0488
     39 H6         -4.6325   -2.9728    0.7221 H         1 <0>         0.0488
     40 H7          5.3254   -1.1394   -0.9015 H         1 <0>         0.0632
     41 H8         -5.5803   -0.6435    1.1006 H         1 <0>         0.0632
     42 H9          2.8573   -1.6310    1.3839 H         1 <0>         0.1491
     43 H10        -3.1713   -1.3026   -1.2019 H         1 <0>         0.1491
     44 H11         2.5663    3.7030    0.9865 H         1 <0>         0.0573
     45 H12         1.5884    5.0525    0.4058 H         1 <0>         0.0573
     46 H13         6.6932   -3.2457   -1.1232 H         1 <0>         0.0583
     47 H14         7.0703   -3.1446    0.6215 H         1 <0>         0.0583
     48 H15        -7.5097   -2.4236   -0.4785 H         1 <0>         0.0583
     49 H16        -7.1453   -2.6136    1.2614 H         1 <0>         0.0583
     50 H17         0.0988    2.1291   -2.6263 H         1 <0>         0.0654
     51 H18        -1.5994    2.1825   -2.0644 H         1 <0>         0.0654
     52 H19         4.8923   -0.4038    1.2051 H         1 <0>         0.2099
     53 H20        -5.0764    0.1104   -0.9838 H         1 <0>         0.2099
     54 H21         2.8063    5.5186    2.2292 H         1 <0>         0.2095
     55 H22         8.6583   -2.1833   -0.6800 H         1 <0>         0.2095
     56 H23        -8.9980   -1.3532    0.8552 H         1 <0>         0.2095
     57 H24        -1.2788    3.1967   -4.0704 H         1 <0>         0.2100
@<TRIPOS>BOND
     1    1   19 1
     2    2   20 1
     3    3   22 1
     4    4   27 1
     5    4   52 1
     6    5   28 1
     7    5   53 1
     8    6   30 1
     9    6   54 1
    10    7   25 2
    11    8   26 2
    12    9   29 2
    13   10   31 1
    14   10   55 1
    15   11   32 1
    16   11   56 1
    17   12   33 1
    18   12   57 1
    19   13   16 1
    20   13   21 1
    21   13   29 am
    22   14   23 1
    23   14   25 am
    24   14   42 1
    25   15   24 1
    26   15   26 am
    27   15   43 1
    28   16   19 ar
    29   16   20 ar
    30   17   20 ar
    31   17   22 ar
    32   17   25 1
    33   18   19 ar
    34   18   22 ar
    35   18   26 1
    36   21   30 1
    37   21   34 1
    38   21   35 1
    39   23   27 1
    40   23   36 1
    41   23   37 1
    42   24   28 1
    43   24   38 1
    44   24   39 1
    45   27   31 1
    46   27   40 1
    47   28   32 1
    48   28   41 1
    49   29   33 1
    50   30   44 1
    51   30   45 1
    52   31   46 1
    53   31   47 1
    54   32   48 1
    55   32   49 1
    56   33   50 1
    57   33   51 1
