@<TRIPOS>MOLECULE
DB09205
   45    45     0     0     0
SMALL
USER_CHARGES

@<TRIPOS>ATOM
      1 O1         -1.2584   -0.3383   -0.8893 O.3       1 <0>        -0.4904
      2 O2          3.8773    0.8196    0.7532 O.3       1 <0>        -0.4257
      3 O3          4.5987    0.5463   -1.4569 O.2       1 <0>        -0.2507
      4 N1         -4.6709    0.9216   -0.2951 N.3       1 <0>        -0.3051
      5 C1          0.4078   -2.5030   -0.0525 C.3       1 <0>        -0.0179
      6 C2          0.8655   -1.0818   -0.0625 C.ar      1 <0>         0.0003
      7 C3         -0.0046   -0.0647   -0.4867 C.ar      1 <0>         0.1244
      8 C4          2.1629   -0.7801    0.3516 C.ar      1 <0>        -0.0121
      9 C5          0.4091   -3.1101    1.3625 C.3       1 <0>        -0.0585
     10 C6          1.2298   -3.3913   -1.0045 C.3       1 <0>        -0.0585
     11 C7          1.7532    1.5629   -0.0718 C.ar      1 <0>        -0.0046
     12 C8          0.4559    1.2613   -0.4859 C.ar      1 <0>        -0.0133
     13 C9          2.6068    0.5422    0.3469 C.ar      1 <0>         0.1350
     14 C10        -2.2654    0.6455   -0.6918 C.3       1 <0>         0.1022
     15 C11        -3.6042   -0.0537   -0.5190 C.3       1 <0>         0.0325
     16 C12         2.2115    2.9840   -0.0833 C.3       1 <0>        -0.0361
     17 C13        -4.3810    1.7339    0.8859 C.3       1 <0>        -0.0129
     18 C14        -5.9590    0.2454   -0.1467 C.3       1 <0>        -0.0129
     19 C15         4.8275    0.7922   -0.2800 C.2       1 <0>         0.3092
     20 C16         6.1881    1.1088    0.2664 C.3       1 <0>         0.0336
     21 H1         -0.6293   -2.5653   -0.4044 H         1 <0>         0.0345
     22 H2          2.8406   -1.5635    0.6813 H         1 <0>         0.0658
     23 H3          1.4200   -3.1845    1.7772 H         1 <0>         0.0235
     24 H4         -0.0188   -4.1185    1.3476 H         1 <0>         0.0235
     25 H5         -0.1911   -2.5007    2.0474 H         1 <0>         0.0235
     26 H6          1.2199   -2.9842   -2.0217 H         1 <0>         0.0235
     27 H7          0.8105   -4.4026   -1.0434 H         1 <0>         0.0235
     28 H8          2.2746   -3.4770   -0.6873 H         1 <0>         0.0235
     29 H9         -0.1767    2.0732   -0.8358 H         1 <0>         0.0658
     30 H10        -2.0249    1.2194    0.2085 H         1 <0>         0.0709
     31 H11        -2.2900    1.3147   -1.5602 H         1 <0>         0.0709
     32 H12        -3.8102   -0.6387   -1.4247 H         1 <0>         0.0460
     33 H13        -3.5379   -0.7801    0.3025 H         1 <0>         0.0460
     34 H14         1.3735    3.6799   -0.1990 H         1 <0>         0.0279
     35 H15         2.7089    3.2398    0.8583 H         1 <0>         0.0279
     36 H16         2.9057    3.1513   -0.9129 H         1 <0>         0.0279
     37 H17        -5.2578    2.3341    1.1596 H         1 <0>         0.0391
     38 H18        -4.1123    1.1283    1.7592 H         1 <0>         0.0391
     39 H19        -3.5934    2.4690    0.6935 H         1 <0>         0.0391
     40 H20        -6.1893   -0.3451   -1.0407 H         1 <0>         0.0391
     41 H21        -5.9785   -0.4224    0.7224 H         1 <0>         0.0391
     42 H22        -6.7685    0.9761   -0.0391 H         1 <0>         0.0391
     43 H23         6.1839    2.1075    0.7099 H         1 <0>         0.0342
     44 H24         6.9191    1.0906   -0.5470 H         1 <0>         0.0342
     45 H25         6.4714    0.3582    1.0084 H         1 <0>         0.0342
@<TRIPOS>BOND
     1    1    7 1
     2    1   14 1
     3    2   13 1
     4    2   19 1
     5    3   19 2
     6    4   15 1
     7    4   17 1
     8    4   18 1
     9    5    6 1
    10    5    9 1
    11    5   10 1
    12    5   21 1
    13    6    7 ar
    14    6    8 ar
    15    7   12 ar
    16    8   13 ar
    17    8   22 1
    18    9   23 1
    19    9   24 1
    20    9   25 1
    21   10   26 1
    22   10   27 1
    23   10   28 1
    24   11   12 ar
    25   11   13 ar
    26   11   16 1
    27   12   29 1
    28   14   15 1
    29   14   30 1
    30   14   31 1
    31   15   32 1
    32   15   33 1
    33   16   34 1
    34   16   35 1
    35   16   36 1
    36   17   37 1
    37   17   38 1
    38   17   39 1
    39   18   40 1
    40   18   41 1
    41   18   42 1
    42   19   20 1
    43   20   43 1
    44   20   44 1
    45   20   45 1
