@<TRIPOS>MOLECULE
DB09145
    3     2     0     0     0
SMALL
USER_CHARGES

@<TRIPOS>ATOM
      1 O1          0.0000    0.3978    0.0000 O.3       1 <0>        -0.4105
      2 H1         -0.7635   -0.1989    0.0000 H         1 <0>         0.2052
      3 H2          0.7635   -0.1989    0.0000 H         1 <0>         0.2052
@<TRIPOS>BOND
     1    1    2 1
     2    1    3 1
