@<TRIPOS>MOLECULE
DB09563
   21    20     0     0     0
SMALL
USER_CHARGES

@<TRIPOS>ATOM
      1 O1         -3.1041   -0.2142    0.4309 O.3       1 <0>        -0.3898
      2 N1          0.6002   -0.0446    0.0115 N.4       1 <0>         0.2385
      3 C1         -0.7425   -0.6427    0.4064 C.3       1 <0>        -0.0071
      4 C2          0.7898    1.2887    0.7205 C.3       1 <0>        -0.0417
      5 C3          1.7173   -0.9966    0.4136 C.3       1 <0>        -0.0417
      6 C4          0.6359    0.1721   -1.4945 C.3       1 <0>        -0.0417
      7 C5         -1.8498    0.3226    0.0320 C.3       1 <0>         0.0841
      8 H1         -0.8568   -1.6055   -0.1061 H         1 <0>         0.0837
      9 H2         -0.7308   -0.8354    1.4860 H         1 <0>         0.0837
     10 H3          0.5749    1.1558    1.7848 H         1 <0>         0.0778
     11 H4          1.8327    1.5951    0.5878 H         1 <0>         0.0778
     12 H5          0.1469    2.0508    0.2733 H         1 <0>         0.0778
     13 H6          1.5614   -1.9488   -0.1021 H         1 <0>         0.0778
     14 H7          2.6753   -0.5569    0.1206 H         1 <0>         0.0778
     15 H8          1.6780   -1.1363    1.4980 H         1 <0>         0.0778
     16 H9          0.3364   -0.7558   -1.9904 H         1 <0>         0.0778
     17 H10        -0.0189    1.0012   -1.7730 H         1 <0>         0.0778
     18 H11         1.6629    0.4293   -1.7737 H         1 <0>         0.0778
     19 H12        -1.7708    1.2841    0.5419 H         1 <0>         0.0610
     20 H13        -1.9214    0.5030   -1.0429 H         1 <0>         0.0610
     21 H14        -3.2169   -1.0660   -0.0245 H         1 <0>         0.2096
@<TRIPOS>BOND
     1    1    7 1
     2    1   21 1
     3    2    3 1
     4    2    4 1
     5    2    5 1
     6    2    6 1
     7    3    7 1
     8    3    8 1
     9    3    9 1
    10    4   10 1
    11    4   11 1
    12    4   12 1
    13    5   13 1
    14    5   14 1
    15    5   15 1
    16    6   16 1
    17    6   17 1
    18    6   18 1
    19    7   19 1
    20    7   20 1
