@<TRIPOS>MOLECULE
DB09056
   58    59     0     0     0
SMALL
USER_CHARGES

@<TRIPOS>ATOM
      1 O1          4.6492    1.7886   -0.2381 O.3       1 <0>        -0.3714
      2 N1          3.1283   -0.5596    0.2800 N.3       1 <0>        -0.2972
      3 C1          1.9301   -1.2545    0.7462 C.3       1 <0>         0.0019
      4 C2          1.2929   -2.1178   -0.3619 C.3       1 <0>        -0.0271
      5 C3          3.7384    0.2157    1.3701 C.3       1 <0>         0.0250
      6 C4          2.8106    0.3272   -0.8490 C.3       1 <0>         0.0250
      7 C5          4.9925    0.9326    0.8572 C.3       1 <0>         0.0689
      8 C6          4.0820    1.0420   -1.3202 C.3       1 <0>         0.0689
      9 C7          0.0216   -2.8340    0.1474 C.3       1 <0>        -0.0239
     10 C8         -4.6787    0.5147    0.2665 C.3       1 <0>        -0.0101
     11 C9          2.2802   -3.1683   -0.8889 C.3       1 <0>        -0.0610
     12 C10        -1.2079   -1.9585    0.1787 C.ar      1 <0>        -0.0470
     13 C11         5.6125    1.7986    1.9454 C.3       1 <0>        -0.0375
     14 C12         3.7758    2.0191   -2.4470 C.3       1 <0>        -0.0375
     15 C13        -3.4647   -0.3507    0.2359 C.ar      1 <0>        -0.0417
     16 C14        -4.7020    1.5827   -0.8953 C.3       1 <0>        -0.0467
     17 C15        -1.4952   -1.2319    1.3231 C.ar      1 <0>        -0.0583
     18 C16        -2.0265   -1.8973   -0.9377 C.ar      1 <0>        -0.0583
     19 C17        -4.9150    1.2957    1.6052 C.3       1 <0>        -0.0558
     20 C18        -5.9648   -0.3592    0.0878 C.3       1 <0>        -0.0558
     21 C19        -2.6309   -0.4226    1.3519 C.ar      1 <0>        -0.0578
     22 C20        -3.1623   -1.0880   -0.9090 C.ar      1 <0>        -0.0578
     23 C21        -3.4976    2.5195   -0.9170 C.3       1 <0>        -0.0645
     24 H1          1.2015   -0.5264    1.1203 H         1 <0>         0.0429
     25 H2          2.1941   -1.9057    1.5897 H         1 <0>         0.0429
     26 H3          0.9794   -1.4998   -1.2099 H         1 <0>         0.0314
     27 H4          4.0170   -0.4514    2.1946 H         1 <0>         0.0452
     28 H5          3.0202    0.9507    1.7580 H         1 <0>         0.0452
     29 H6          2.0513    1.0633   -0.5526 H         1 <0>         0.0452
     30 H7          2.4343   -0.2257   -1.7135 H         1 <0>         0.0452
     31 H8          5.7421    0.2055    0.5181 H         1 <0>         0.0606
     32 H9          4.8242    0.3162   -1.6779 H         1 <0>         0.0606
     33 H10         0.1972   -3.2630    1.1432 H         1 <0>         0.0316
     34 H11        -0.2026   -3.6977   -0.4938 H         1 <0>         0.0316
     35 H12         3.1658   -2.7049   -1.3346 H         1 <0>         0.0233
     36 H13         1.8145   -3.7835   -1.6666 H         1 <0>         0.0233
     37 H14         2.6121   -3.8351   -0.0858 H         1 <0>         0.0233
     38 H15         4.9138    2.5752    2.2758 H         1 <0>         0.0255
     39 H16         5.9071    1.1987    2.8118 H         1 <0>         0.0255
     40 H17         6.4982    2.3163    1.5615 H         1 <0>         0.0255
     41 H18         4.6891    2.5356   -2.7617 H         1 <0>         0.0255
     42 H19         3.3489    1.5066   -3.3143 H         1 <0>         0.0255
     43 H20         3.0757    2.7942   -2.1158 H         1 <0>         0.0255
     44 H21        -5.6139    2.1897   -0.8207 H         1 <0>         0.0271
     45 H22        -4.7573    1.0783   -1.8684 H         1 <0>         0.0271
     46 H23        -0.8578   -1.2868    2.2009 H         1 <0>         0.0620
     47 H24        -1.7980   -2.4654   -1.8349 H         1 <0>         0.0620
     48 H25        -5.8138    1.9210    1.5429 H         1 <0>         0.0238
     49 H26        -4.0777    1.9575    1.8504 H         1 <0>         0.0238
     50 H27        -5.0614    0.6083    2.4470 H         1 <0>         0.0238
     51 H28        -5.9809   -0.8713   -0.8807 H         1 <0>         0.0238
     52 H29        -6.8730    0.2521    0.1458 H         1 <0>         0.0238
     53 H30        -6.0265   -1.1275    0.8679 H         1 <0>         0.0238
     54 H31        -2.8200    0.1263    2.2677 H         1 <0>         0.0621
     55 H32        -3.7933   -1.0505   -1.7921 H         1 <0>         0.0621
     56 H33        -3.4318    3.1151   -0.0025 H         1 <0>         0.0230
     57 H34        -3.5882    3.2170   -1.7565 H         1 <0>         0.0230
     58 H35        -2.5589    1.9729   -1.0442 H         1 <0>         0.0230
@<TRIPOS>BOND
     1    1    7 1
     2    1    8 1
     3    2    3 1
     4    2    5 1
     5    2    6 1
     6    3    4 1
     7    3   24 1
     8    3   25 1
     9    4    9 1
    10    4   11 1
    11    4   26 1
    12    5    7 1
    13    5   27 1
    14    5   28 1
    15    6    8 1
    16    6   29 1
    17    6   30 1
    18    7   13 1
    19    7   31 1
    20    8   14 1
    21    8   32 1
    22    9   12 1
    23    9   33 1
    24    9   34 1
    25   10   15 1
    26   10   16 1
    27   10   19 1
    28   10   20 1
    29   11   35 1
    30   11   36 1
    31   11   37 1
    32   12   17 ar
    33   12   18 ar
    34   13   38 1
    35   13   39 1
    36   13   40 1
    37   14   41 1
    38   14   42 1
    39   14   43 1
    40   15   21 ar
    41   15   22 ar
    42   16   23 1
    43   16   44 1
    44   16   45 1
    45   17   21 ar
    46   17   46 1
    47   18   22 ar
    48   18   47 1
    49   19   48 1
    50   19   49 1
    51   19   50 1
    52   20   51 1
    53   20   52 1
    54   20   53 1
    55   21   54 1
    56   22   55 1
    57   23   56 1
    58   23   57 1
    59   23   58 1
