@<TRIPOS>MOLECULE
DB09143
   61    64     0     0     0
SMALL
USER_CHARGES

@<TRIPOS>ATOM
      1 F1         -7.9805    3.5611   -0.6497 F         1 <0>        -0.1328
      2 F2        -10.1304    3.8601   -0.3965 F         1 <0>        -0.1328
      3 F3         -9.3851    2.9921   -2.2583 F         1 <0>        -0.1328
      4 O1          7.9257    0.9734    0.0716 O.3       1 <0>        -0.3708
      5 O2         -0.8597   -0.3563    1.8898 O.2       1 <0>        -0.2698
      6 O3         -9.3386    1.7471   -0.3402 O.3       1 <0>        -0.4057
      7 N1          5.2340    0.2023   -0.1388 N.pl3     1 <0>        -0.3103
      8 N2          3.1115    0.2219    0.9076 N.ar      1 <0>        -0.2385
      9 N3         -0.0595   -1.3595   -0.0810 N.am      1 <0>        -0.2802
     10 C1          6.9223    1.9806   -0.0950 C.3       1 <0>         0.0719
     11 C2          7.5929   -0.2105   -0.6603 C.3       1 <0>         0.0719
     12 C3          5.5900    1.4886    0.4768 C.3       1 <0>         0.0396
     13 C4          6.2930   -0.8130   -0.1189 C.3       1 <0>         0.0396
     14 C5          7.3994    3.2341    0.6253 C.3       1 <0>        -0.0372
     15 C6          8.7516   -1.1876   -0.5158 C.3       1 <0>        -0.0372
     16 C7          3.8917   -0.1890   -0.1172 C.ar      1 <0>         0.1215
     17 C8          3.4455   -0.9821   -1.1622 C.ar      1 <0>        -0.0199
     18 C9          2.1129   -1.3790   -1.1549 C.ar      1 <0>        -0.0357
     19 C10         1.2790   -0.9763   -0.1176 C.ar      1 <0>         0.0520
     20 C11         1.8220   -0.1835    0.8806 C.ar      1 <0>         0.0509
     21 C12        -2.3719   -1.6272    0.6613 C.ar      1 <0>         0.0405
     22 C13        -3.4978   -0.8189    0.5051 C.ar      1 <0>        -0.0306
     23 C14        -4.7492   -1.3989    0.2967 C.ar      1 <0>        -0.0143
     24 C15        -1.0245   -1.0410    0.8858 C.2       1 <0>         0.2486
     25 C16        -5.9366   -0.5840    0.1306 C.ar      1 <0>        -0.0174
     26 C17        -2.4972   -3.0154    0.6090 C.ar      1 <0>        -0.0493
     27 C18        -4.8745   -2.7872    0.2445 C.ar      1 <0>        -0.0537
     28 C19        -3.3527    0.6711    0.5624 C.3       1 <0>        -0.0384
     29 C20        -3.7485   -3.5954    0.4007 C.ar      1 <0>        -0.0605
     30 C21        -6.6932   -0.2208    1.2448 C.ar      1 <0>        -0.0506
     31 C22        -6.3237   -0.1644   -1.1421 C.ar      1 <0>        -0.0506
     32 C23        -7.8366    0.5620    1.0864 C.ar      1 <0>        -0.0190
     33 C24        -7.4672    0.6183   -1.3006 C.ar      1 <0>        -0.0190
     34 C25        -8.2238    0.9815   -0.1864 C.ar      1 <0>         0.1300
     35 C26        -9.1944    3.0377   -0.9227 C.3       1 <0>         0.5752
     36 H1          6.8204    2.2050   -1.1647 H         1 <0>         0.0609
     37 H2          7.4808    0.0491   -1.7210 H         1 <0>         0.0609
     38 H3          4.8172    2.2427    0.2818 H         1 <0>         0.0489
     39 H4          5.6676    1.3492    1.5627 H         1 <0>         0.0489
     40 H5          6.4299   -1.1459    0.9179 H         1 <0>         0.0489
     41 H6          6.0292   -1.6926   -0.7167 H         1 <0>         0.0489
     42 H7          8.3584    3.5676    0.2144 H         1 <0>         0.0255
     43 H8          6.6756    4.0489    0.5277 H         1 <0>         0.0255
     44 H9          7.5662    3.0367    1.6900 H         1 <0>         0.0255
     45 H10         8.5611   -2.1148   -1.0648 H         1 <0>         0.0255
     46 H11         9.6764   -0.7403   -0.8961 H         1 <0>         0.0255
     47 H12         8.9312   -1.4319    0.5370 H         1 <0>         0.0255
     48 H13         4.0916   -1.2847   -1.9798 H         1 <0>         0.0652
     49 H14         1.7362   -1.9991   -1.9639 H         1 <0>         0.0638
     50 H15         1.2719    0.1878    1.7330 H         1 <0>         0.0849
     51 H16        -0.3644   -1.9412   -0.8590 H         1 <0>         0.1552
     52 H17        -1.6304   -3.6594    0.7342 H         1 <0>         0.0625
     53 H18        -5.8419   -3.2574    0.0833 H         1 <0>         0.0624
     54 H19        -4.1085    1.2026   -0.0223 H         1 <0>         0.0278
     55 H20        -2.3976    1.0020    0.1408 H         1 <0>         0.0278
     56 H21        -3.4167    1.0131    1.6006 H         1 <0>         0.0278
     57 H22        -3.8462   -4.6763    0.3614 H         1 <0>         0.0618
     58 H23        -6.4050   -0.5389    2.2441 H         1 <0>         0.0625
     59 H24        -5.7459   -0.4398   -2.0212 H         1 <0>         0.0625
     60 H25        -8.4215    0.8426    1.9581 H         1 <0>         0.0654
     61 H26        -7.7609    0.9329   -2.2982 H         1 <0>         0.0654
@<TRIPOS>BOND
     1    1   35 1
     2    2   35 1
     3    3   35 1
     4    4   10 1
     5    4   11 1
     6    5   24 2
     7    6   34 1
     8    6   35 1
     9    7   12 1
    10    7   13 1
    11    7   16 1
    12    8   16 ar
    13    8   20 ar
    14    9   19 1
    15    9   24 am
    16    9   51 1
    17   10   12 1
    18   10   14 1
    19   10   36 1
    20   11   13 1
    21   11   15 1
    22   11   37 1
    23   12   38 1
    24   12   39 1
    25   13   40 1
    26   13   41 1
    27   14   42 1
    28   14   43 1
    29   14   44 1
    30   15   45 1
    31   15   46 1
    32   15   47 1
    33   16   17 ar
    34   17   18 ar
    35   17   48 1
    36   18   19 ar
    37   18   49 1
    38   19   20 ar
    39   20   50 1
    40   21   22 ar
    41   21   24 1
    42   21   26 ar
    43   22   23 ar
    44   22   28 1
    45   23   25 1
    46   23   27 ar
    47   25   30 ar
    48   25   31 ar
    49   26   29 ar
    50   26   52 1
    51   27   29 ar
    52   27   53 1
    53   28   54 1
    54   28   55 1
    55   28   56 1
    56   29   57 1
    57   30   32 ar
    58   30   58 1
    59   31   33 ar
    60   31   59 1
    61   32   34 ar
    62   32   60 1
    63   33   34 ar
    64   33   61 1
