@<TRIPOS>MOLECULE
DB09064
   32    33     0     0     0
SMALL
USER_CHARGES

@<TRIPOS>ATOM
      1 Cl1         3.3433   -1.5708   -1.8569 Cl        1 <0>        -0.1002
      2 Cl2         5.8895   -1.4668   -0.3920 Cl        1 <0>        -0.1002
      3 O1         -1.9011    0.0653    1.1983 O.3       1 <0>        -0.4751
      4 O2         -5.0524   -0.0983   -0.5018 O.3       1 <0>        -0.4779
      5 O3         -4.4821    0.1388    1.6747 O.2       1 <0>        -0.2465
      6 C1          3.6906    0.0379    0.4550 C.3       1 <0>         0.0197
      7 C2          4.3258   -0.7022   -0.6815 C.3       1 <0>         0.1259
      8 C3          4.2722    0.7972   -0.6977 C.3       1 <0>        -0.0099
      9 C4          2.2137    0.0452    0.6514 C.ar      1 <0>        -0.0411
     10 C5          1.5196    1.2548    0.6792 C.ar      1 <0>        -0.0548
     11 C6          1.5248   -1.1577    0.8073 C.ar      1 <0>        -0.0548
     12 C7          0.1370    1.2616    0.8631 C.ar      1 <0>        -0.0196
     13 C8          0.1421   -1.1509    0.9911 C.ar      1 <0>        -0.0196
     14 C9         -0.5453    0.0587    1.0181 C.ar      1 <0>         0.1221
     15 C10        -2.7023    0.0009    0.0181 C.3       1 <0>         0.2003
     16 C11        -2.3808   -1.3062   -0.7004 C.3       1 <0>        -0.0145
     17 C12        -2.3859    1.2254   -0.8353 C.3       1 <0>        -0.0145
     18 C13        -4.1463    0.0235    0.5019 C.2       1 <0>         0.3485
     19 H1          4.2653    0.0890    1.3787 H         1 <0>         0.0379
     20 H2          3.6123    1.2802   -1.4100 H         1 <0>         0.0301
     21 H3          5.1849    1.3555   -0.5198 H         1 <0>         0.0301
     22 H4          2.0436    2.2007    0.5705 H         1 <0>         0.0622
     23 H5          2.0526   -2.1076    0.8145 H         1 <0>         0.0622
     24 H6         -0.3859    2.2124    0.9087 H         1 <0>         0.0654
     25 H7         -0.3764   -2.0935    1.1401 H         1 <0>         0.0654
     26 H8         -3.0899   -1.4846   -1.5175 H         1 <0>         0.0273
     27 H9         -1.3869   -1.3121   -1.1588 H         1 <0>         0.0273
     28 H10        -2.4537   -2.1642   -0.0224 H         1 <0>         0.0273
     29 H11        -2.4567    2.1501   -0.2513 H         1 <0>         0.0273
     30 H12        -3.1025    1.3152   -1.6605 H         1 <0>         0.0273
     31 H13        -1.3949    1.1837   -1.2980 H         1 <0>         0.0273
     32 H14        -5.9741   -0.0813   -0.1666 H         1 <0>         0.2952
@<TRIPOS>BOND
     1    1    7 1
     2    2    7 1
     3    3   14 1
     4    3   15 1
     5    4   18 1
     6    4   32 1
     7    5   18 2
     8    6    7 1
     9    6    8 1
    10    6    9 1
    11    6   19 1
    12    7    8 1
    13    8   20 1
    14    8   21 1
    15    9   10 ar
    16    9   11 ar
    17   10   12 ar
    18   10   22 1
    19   11   13 ar
    20   11   23 1
    21   12   14 ar
    22   12   24 1
    23   13   14 ar
    24   13   25 1
    25   15   16 1
    26   15   17 1
    27   15   18 1
    28   16   26 1
    29   16   27 1
    30   16   28 1
    31   17   29 1
    32   17   30 1
    33   17   31 1
