@<TRIPOS>MOLECULE
DB09120
   49    49     0     0     0
SMALL
USER_CHARGES

@<TRIPOS>ATOM
      1 O1         -0.0456   -1.8877    1.8844 O.2       1 <0>        -0.2758
      2 O2          2.7822    3.0125   -0.4519 O.3       1 <0>        -0.4914
      3 O3          5.2356    2.5219   -1.6631 O.3       1 <0>        -0.5033
      4 N1          1.9351   -2.3223    0.7461 N.am      1 <0>        -0.3112
      5 C1         -1.7272   -1.7088   -0.8793 C.3       1 <0>        -0.0492
      6 C2         -1.5643   -3.0751   -0.2022 C.3       1 <0>        -0.0445
      7 C3         -3.1844   -1.3594   -1.2000 C.3       1 <0>        -0.0347
      8 C4         -0.0980   -3.4287    0.0459 C.3       1 <0>         0.0240
      9 C5         -3.5418    1.2002    0.3472 C.3       1 <0>        -0.0286
     10 C6         -3.3427   -0.0127   -1.8452 C.2       1 <0>        -0.0877
     11 C7          0.5805   -2.4616    0.9960 C.2       1 <0>         0.2133
     12 C8         -3.5020    1.1285   -1.1582 C.2       1 <0>        -0.0854
     13 C9          2.7969   -1.4611    1.5228 C.3       1 <0>         0.0369
     14 C10         3.4416   -0.4012    0.6770 C.ar      1 <0>        -0.0266
     15 C11        -4.8883    1.7524    0.8137 C.3       1 <0>        -0.0592
     16 C12        -2.3957    2.0689    0.8641 C.3       1 <0>        -0.0592
     17 C13         2.8097    0.8296    0.4994 C.ar      1 <0>        -0.0116
     18 C14         4.6728   -0.6473    0.0692 C.ar      1 <0>        -0.0534
     19 C15         3.4090    1.8145   -0.2860 C.ar      1 <0>         0.1616
     20 C16         5.2717    0.3374   -0.7164 C.ar      1 <0>        -0.0162
     21 C17         4.6400    1.5684   -0.8939 C.ar      1 <0>         0.1585
     22 C18         1.5271    3.1835    0.2035 C.3       1 <0>         0.0790
     23 H1         -1.3052   -0.9253   -0.2395 H         1 <0>         0.0268
     24 H2         -1.1436   -1.6979   -1.8091 H         1 <0>         0.0268
     25 H3         -2.0104   -3.8499   -0.8371 H         1 <0>         0.0270
     26 H4         -2.1183   -3.0806    0.7443 H         1 <0>         0.0270
     27 H5         -3.5785   -2.1066   -1.9016 H         1 <0>         0.0307
     28 H6         -3.8132   -1.4623   -0.3092 H         1 <0>         0.0307
     29 H7          0.4388   -3.4560   -0.9095 H         1 <0>         0.0358
     30 H8         -0.0299   -4.4279    0.4909 H         1 <0>         0.0358
     31 H9         -3.4191    0.2195    0.8143 H         1 <0>         0.0338
     32 H10        -3.3074    0.0291   -2.9305 H         1 <0>         0.0569
     33 H11        -3.6015    2.0588   -1.7125 H         1 <0>         0.0572
     34 H12         3.5627   -2.0996    1.9783 H         1 <0>         0.0512
     35 H13         2.2410   -1.0051    2.3500 H         1 <0>         0.0512
     36 H14         2.3608   -2.8665    0.0013 H         1 <0>         0.1490
     37 H15        -4.9310    1.7975    1.9075 H         1 <0>         0.0235
     38 H16        -5.7120    1.1144    0.4743 H         1 <0>         0.0235
     39 H17        -5.0641    2.7636    0.4296 H         1 <0>         0.0235
     40 H18        -2.4522    3.0900    0.4702 H         1 <0>         0.0235
     41 H19        -2.4169    2.1297    1.9577 H         1 <0>         0.0235
     42 H20        -1.4272    1.6476    0.5743 H         1 <0>         0.0235
     43 H21         1.8528    0.9614    0.9937 H         1 <0>         0.0658
     44 H22         5.1742   -1.6028    0.1984 H         1 <0>         0.0622
     45 H23         6.2307    0.1322   -1.1846 H         1 <0>         0.0655
     46 H24         6.0792    2.1751   -2.0009 H         1 <0>         0.2923
     47 H25         1.1747    4.1929   -0.0329 H         1 <0>         0.0660
     48 H26         1.6275    3.1295    1.2928 H         1 <0>         0.0660
     49 H27         0.7758    2.4870   -0.1830 H         1 <0>         0.0660
@<TRIPOS>BOND
     1    1   11 2
     2    2   19 1
     3    2   22 1
     4    3   21 1
     5    3   46 1
     6    4   11 am
     7    4   13 1
     8    4   36 1
     9    5    6 1
    10    5    7 1
    11    5   23 1
    12    5   24 1
    13    6    8 1
    14    6   25 1
    15    6   26 1
    16    7   10 1
    17    7   27 1
    18    7   28 1
    19    8   11 1
    20    8   29 1
    21    8   30 1
    22    9   12 1
    23    9   15 1
    24    9   16 1
    25    9   31 1
    26   10   12 2
    27   10   32 1
    28   12   33 1
    29   13   14 1
    30   13   34 1
    31   13   35 1
    32   14   17 ar
    33   14   18 ar
    34   15   37 1
    35   15   38 1
    36   15   39 1
    37   16   40 1
    38   16   41 1
    39   16   42 1
    40   17   19 ar
    41   17   43 1
    42   18   20 ar
    43   18   44 1
    44   19   21 ar
    45   20   21 ar
    46   20   45 1
    47   22   47 1
    48   22   48 1
    49   22   49 1
