@<TRIPOS>MOLECULE
DB09088
   38    38     0     0     0
SMALL
USER_CHARGES

@<TRIPOS>ATOM
      1 O1         -0.2201    0.1655    0.3575 O.3       1 <0>        -0.4536
      2 O2         -0.9977    2.3206    0.1347 O.2       1 <0>        -0.2449
      3 N1          2.1076   -1.4444   -0.5108 N.3       1 <0>        -0.3046
      4 C1          1.1246    0.6534    0.4644 C.3       1 <0>         0.1234
      5 C2          2.0467   -0.5691    0.6533 C.3       1 <0>         0.0380
      6 C3          1.4174    1.4749   -0.8097 C.3       1 <0>        -0.0147
      7 C4          1.1757    1.5792    1.6882 C.3       1 <0>        -0.0236
      8 C5          2.7811    2.1566   -0.8235 C.3       1 <0>        -0.0616
      9 C6          0.7978   -2.0430   -0.7751 C.3       1 <0>        -0.0129
     10 C7          3.1136   -2.4904   -0.3178 C.3       1 <0>        -0.0129
     11 C8         -1.1758    1.1139    0.1960 C.2       1 <0>         0.3397
     12 C9         -2.5163    0.4828    0.1006 C.ar      1 <0>         0.0590
     13 C10        -3.4941    1.1043   -0.6488 C.ar      1 <0>        -0.0478
     14 C11        -2.7424   -0.7059    0.7640 C.ar      1 <0>        -0.0478
     15 C12        -4.7534    0.5111   -0.7387 C.ar      1 <0>        -0.0610
     16 C13        -4.0017   -1.2990    0.6738 C.ar      1 <0>        -0.0610
     17 C14        -5.0072   -0.6904   -0.0775 C.ar      1 <0>        -0.0617
     18 H1          1.7169   -1.1373    1.5348 H         1 <0>         0.0465
     19 H2          3.0573   -0.2056    0.8792 H         1 <0>         0.0465
     20 H3          0.7106    2.2702   -1.0405 H         1 <0>         0.0301
     21 H4          1.3502    0.8180   -1.6866 H         1 <0>         0.0301
     22 H5          0.7829    2.5847    1.5142 H         1 <0>         0.0268
     23 H6          0.6131    1.1511    2.5264 H         1 <0>         0.0268
     24 H7          2.2097    1.7183    2.0255 H         1 <0>         0.0268
     25 H8          3.5943    1.4340   -0.7108 H         1 <0>         0.0231
     26 H9          2.8668    2.9060   -0.0312 H         1 <0>         0.0231
     27 H10         2.9306    2.6703   -1.7794 H         1 <0>         0.0231
     28 H11         0.3120   -2.4320    0.1269 H         1 <0>         0.0391
     29 H12         0.9007   -2.8870   -1.4696 H         1 <0>         0.0391
     30 H13         0.1331   -1.3532   -1.3019 H         1 <0>         0.0391
     31 H14         3.2017   -3.1125   -1.2157 H         1 <0>         0.0391
     32 H15         2.8756   -3.1404    0.5321 H         1 <0>         0.0391
     33 H16         4.1023   -2.0488   -0.1493 H         1 <0>         0.0391
     34 H17        -3.3073    2.0379   -1.1710 H         1 <0>         0.0626
     35 H18        -1.9817   -1.1931    1.3665 H         1 <0>         0.0626
     36 H19        -5.5361    0.9844   -1.3243 H         1 <0>         0.0618
     37 H20        -4.2008   -2.2331    1.1911 H         1 <0>         0.0618
     38 H21        -5.9879   -1.1519   -0.1470 H         1 <0>         0.0618
@<TRIPOS>BOND
     1    1    4 1
     2    1   11 1
     3    2   11 2
     4    3    5 1
     5    3    9 1
     6    3   10 1
     7    4    5 1
     8    4    6 1
     9    4    7 1
    10    5   18 1
    11    5   19 1
    12    6    8 1
    13    6   20 1
    14    6   21 1
    15    7   22 1
    16    7   23 1
    17    7   24 1
    18    8   25 1
    19    8   26 1
    20    8   27 1
    21    9   28 1
    22    9   29 1
    23    9   30 1
    24   10   31 1
    25   10   32 1
    26   10   33 1
    27   11   12 1
    28   12   13 ar
    29   12   14 ar
    30   13   15 ar
    31   13   34 1
    32   14   16 ar
    33   14   35 1
    34   15   17 ar
    35   15   36 1
    36   16   17 ar
    37   16   37 1
    38   17   38 1
