@<TRIPOS>MOLECULE
DB09183
   62    65     0     0     0
SMALL
USER_CHARGES

@<TRIPOS>ATOM
      1 S1         -7.8537   -1.1462   -0.2192 S.o2      1 <0>         0.0403
      2 O1          0.8382    2.3173   -0.2015 O.3       1 <0>        -0.4942
      3 O2          2.2294   -3.6829   -1.4066 O.2       1 <0>        -0.2461
      4 O3          5.7124   -6.0191    0.4472 O.2       1 <0>        -0.2677
      5 O4         -9.2053   -0.9860   -0.7223 O.2       1 <0>        -0.1555
      6 O5         -7.0144   -2.2284   -0.6936 O.2       1 <0>        -0.1555
      7 N1          3.6251   -2.5346    0.1222 N.am      1 <0>        -0.2694
      8 N2          3.9251   -4.8328   -0.4158 N.am      1 <0>        -0.2746
      9 N3         -7.0410    0.3665   -0.3510 N.pl3     1 <0>        -0.2209
     10 C1          3.6394    2.4186    0.2222 C.3       1 <0>        -0.0091
     11 C2          2.8894    1.1346    0.0836 C.ar      1 <0>         0.0022
     12 C3          1.5100    1.1314   -0.1235 C.ar      1 <0>         0.1315
     13 C4          5.1610    2.1611    0.4465 C.3       1 <0>        -0.0559
     14 C5          3.5548    3.3793   -1.0091 C.3       1 <0>        -0.0559
     15 C6          3.1173    3.2486    1.4349 C.3       1 <0>        -0.0559
     16 C7          0.8263   -0.0778   -0.2499 C.ar      1 <0>         0.0260
     17 C8          3.5851   -0.0717    0.1647 C.ar      1 <0>        -0.0305
     18 C9          2.9015   -1.2810    0.0382 C.ar      1 <0>         0.0519
     19 C10         1.5221   -1.2840   -0.1689 C.ar      1 <0>        -0.0265
     20 C11        -0.6042   -0.1045   -0.4653 C.ar      1 <0>        -0.0137
     21 C12        -1.4621    0.4659    0.4754 C.ar      1 <0>        -0.0462
     22 C13        -2.8528    0.4477    0.2807 C.ar      1 <0>        -0.0172
     23 C14        -1.1232   -0.6999   -1.6113 C.ar      1 <0>        -0.0533
     24 C15        -3.3807   -0.1577   -0.8845 C.ar      1 <0>        -0.0161
     25 C16        -2.5023   -0.7270   -1.8208 C.ar      1 <0>        -0.0534
     26 C17         3.1706   -3.6659   -0.6092 C.2       1 <0>         0.3338
     27 C18         4.7750   -2.6378    0.8985 C.2       1 <0>         0.0197
     28 C19        -3.7312    1.0170    1.2169 C.ar      1 <0>        -0.0522
     29 C20        -4.7715   -0.1759   -1.0792 C.ar      1 <0>        -0.0316
     30 C21        -5.6294    0.3945   -0.1385 C.ar      1 <0>         0.0483
     31 C22         0.1394    2.5841   -1.4144 C.3       1 <0>         0.0788
     32 C23        -5.1103    0.9900    1.0073 C.ar      1 <0>        -0.0387
     33 C24         5.4948   -3.7529    1.0368 C.2       1 <0>         0.0195
     34 C25         5.0727   -4.9776    0.3415 C.2       1 <0>         0.2539
     35 C26        -7.9748   -1.2845    1.5501 C.3       1 <0>         0.0736
     36 H1          2.5654    3.8214   -1.1349 H         1 <0>         0.0238
     37 H2          3.1174    2.6415    2.3482 H         1 <0>         0.0238
     38 H3          2.1045    3.6361    1.2960 H         1 <0>         0.0238
     39 H4          3.7616    4.1168    1.6188 H         1 <0>         0.0238
     40 H5          3.8023    2.8431   -1.9324 H         1 <0>         0.0238
     41 H6          4.2568    4.2157   -0.9083 H         1 <0>         0.0238
     42 H7          5.6301    1.6640   -0.4111 H         1 <0>         0.0238
     43 H8          5.3564    1.5903    1.3624 H         1 <0>         0.0238
     44 H9          5.6941    3.1126    0.5725 H         1 <0>         0.0238
     45 H10         4.6599   -0.1086    0.2708 H         1 <0>         0.0642
     46 H11         0.9561   -2.2106   -0.1995 H         1 <0>         0.0645
     47 H12        -1.0568    0.9221    1.3780 H         1 <0>         0.0630
     48 H13        -0.4717   -1.1442   -2.3602 H         1 <0>         0.0624
     49 H14        -2.8858   -1.1964   -2.7243 H         1 <0>         0.0624
     50 H15        -5.1832   -0.6282   -1.9800 H         1 <0>         0.0642
     51 H16        -3.3479    1.4876    2.1199 H         1 <0>         0.0624
     52 H17         5.0832   -1.7651    1.4631 H         1 <0>         0.0816
     53 H18         0.3415    3.6226   -1.6954 H         1 <0>         0.0660
     54 H19        -0.9398    2.5090   -1.2642 H         1 <0>         0.0660
     55 H20         0.4645    1.9502   -2.2469 H         1 <0>         0.0660
     56 H21        -5.7696    1.4362    1.7473 H         1 <0>         0.0637
     57 H22         3.6112   -5.6570   -0.9211 H         1 <0>         0.1734
     58 H23         6.3752   -3.7898    1.6669 H         1 <0>         0.0686
     59 H24        -7.5404    1.1674    0.0587 H         1 <0>         0.1733
     60 H25        -8.5431   -2.1893    1.7775 H         1 <0>         0.0482
     61 H26        -6.9735   -1.3647    1.9759 H         1 <0>         0.0482
     62 H27        -8.5011   -0.4114    1.9404 H         1 <0>         0.0482
@<TRIPOS>BOND
     1    1    5 2
     2    1    6 2
     3    1    9 1
     4    1   35 1
     5    2   12 1
     6    2   31 1
     7    3   26 2
     8    4   34 2
     9    7   18 1
    10    7   26 am
    11    7   27 1
    12    8   26 am
    13    8   34 am
    14    8   57 1
    15    9   30 1
    16    9   59 1
    17   10   11 1
    18   10   13 1
    19   10   14 1
    20   10   15 1
    21   11   12 ar
    22   11   17 ar
    23   12   16 ar
    24   13   42 1
    25   13   43 1
    26   13   44 1
    27   14   36 1
    28   14   40 1
    29   14   41 1
    30   15   37 1
    31   15   38 1
    32   15   39 1
    33   16   19 ar
    34   16   20 1
    35   17   18 ar
    36   17   45 1
    37   18   19 ar
    38   19   46 1
    39   20   21 ar
    40   20   23 ar
    41   21   22 ar
    42   21   47 1
    43   22   24 ar
    44   22   28 ar
    45   23   25 ar
    46   23   48 1
    47   24   25 ar
    48   24   29 ar
    49   25   49 1
    50   27   33 2
    51   27   52 1
    52   28   32 ar
    53   28   51 1
    54   29   30 ar
    55   29   50 1
    56   30   32 ar
    57   31   53 1
    58   31   54 1
    59   31   55 1
    60   32   56 1
    61   33   34 1
    62   33   58 1
    63   35   60 1
    64   35   61 1
    65   35   62 1
