@<TRIPOS>MOLECULE
DB09110
   13    12     0     0     0
SMALL
USER_CHARGES

@<TRIPOS>ATOM
      1 S1          1.4451    0.5202    0.0844 S.o2      1 <0>         0.0805
      2 S2         -2.8188   -0.2314   -0.3854 S.3       1 <0>        -0.1766
      3 O1          2.4394   -0.7064   -0.3233 O.3       1 <0>        -0.2539
      4 O2          1.4934    0.7024    1.5231 O.2       1 <0>        -0.1474
      5 O3          1.6680    1.6253   -0.8297 O.2       1 <0>        -0.1474
      6 C1         -0.0772   -0.2689   -0.3407 C.3       1 <0>         0.1013
      7 C2         -1.2640    0.5718    0.0917 C.3       1 <0>         0.0125
      8 H1         -0.0666   -0.4285   -1.4242 H         1 <0>         0.0533
      9 H2         -0.0870   -1.2406    0.1655 H         1 <0>         0.0533
     10 H3         -1.2287    1.5618   -0.3742 H         1 <0>         0.0390
     11 H4         -1.2672    0.7179    1.1767 H         1 <0>         0.0390
     12 H5          2.4206   -1.4866    0.2797 H         1 <0>         0.2445
     13 H6         -2.6568   -1.3370    0.3564 H         1 <0>         0.1017
@<TRIPOS>BOND
     1    1    3 1
     2    1    4 2
     3    1    5 2
     4    1    6 1
     5    2    7 1
     6    2   13 1
     7    3   12 1
     8    6    7 1
     9    6    8 1
    10    6    9 1
    11    7   10 1
    12    7   11 1
