@<TRIPOS>MOLECULE
DB09078
   49    52     0     0     0
SMALL
USER_CHARGES

@<TRIPOS>ATOM
      1 Cl1        -1.6371   -0.9239    2.3218 Cl        1 <0>        -0.0815
      2 O1         -5.3351   -0.0810   -1.4651 O.2       1 <0>        -0.2525
      3 O2          1.0866    0.7237   -1.6283 O.3       1 <0>        -0.4553
      4 O3          6.8921   -0.3619    0.8233 O.3       1 <0>        -0.4943
      5 O4          5.0626   -3.0844   -0.1387 O.2       1 <0>        -0.2703
      6 N1         -6.2178   -0.8539    0.5247 N.am      1 <0>        -0.2963
      7 N2         -3.9343   -0.5361    0.3692 N.am      1 <0>        -0.2681
      8 N3          3.5651    3.0302    0.7659 N.ar      1 <0>        -0.2546
      9 N4          6.0375   -2.1712   -2.0027 N.am      1 <0>        -0.3252
     10 C1         -7.5856   -0.8669    0.0921 C.3       1 <0>         0.0247
     11 C2         -8.4196    0.3719    0.1533 C.3       1 <0>        -0.0328
     12 C3         -8.7008   -0.7721    1.0828 C.3       1 <0>        -0.0328
     13 C4         -5.1660   -0.4516   -0.3057 C.2       1 <0>         0.3041
     14 C5         -2.6584   -0.2259   -0.1109 C.ar      1 <0>         0.0534
     15 C6         -1.5257   -0.3633    0.6915 C.ar      1 <0>         0.0656
     16 C7         -2.5325    0.2311   -1.4227 C.ar      1 <0>        -0.0355
     17 C8          3.1698    0.9783   -0.4346 C.ar      1 <0>         0.0436
     18 C9         -0.1612    0.4082   -1.1217 C.ar      1 <0>         0.1300
     19 C10         1.9194    1.4638   -0.8403 C.ar      1 <0>         0.1390
     20 C11         3.9714    1.8060    0.3793 C.ar      1 <0>         0.0780
     21 C12        -0.2671   -0.0438    0.1820 C.ar      1 <0>         0.0008
     22 C13        -1.2740    0.5508   -1.9322 C.ar      1 <0>        -0.0175
     23 C14         3.6254   -0.2940   -0.8193 C.ar      1 <0>        -0.0334
     24 C15         4.8720   -0.7516   -0.4021 C.ar      1 <0>         0.0788
     25 C16         5.6668    0.0583    0.3995 C.ar      1 <0>         0.1342
     26 C17         5.2134    1.3232    0.7820 C.ar      1 <0>         0.0069
     27 C18         1.4981    2.7247   -0.4434 C.ar      1 <0>        -0.0006
     28 C19         2.3515    3.4614    0.3526 C.ar      1 <0>         0.0318
     29 C20         5.3218   -2.0739   -0.8141 C.2       1 <0>         0.2451
     30 C21         6.9423   -1.0664    2.0620 C.3       1 <0>         0.0788
     31 H1         -7.7471   -1.5317   -0.7507 H         1 <0>         0.0499
     32 H2         -7.9855    1.2692    0.5773 H         1 <0>         0.0284
     33 H3         -9.1191    0.5504   -0.6540 H         1 <0>         0.0284
     34 H4         -9.5907   -1.3623    0.9012 H         1 <0>         0.0284
     35 H5         -8.4562   -0.6406    2.1298 H         1 <0>         0.0284
     36 H6         -6.0119   -1.1589    1.4714 H         1 <0>         0.1505
     37 H7         -3.9709   -0.8641    1.3313 H         1 <0>         0.1564
     38 H8         -3.3516    0.3677   -2.1128 H         1 <0>         0.0638
     39 H9          0.6112   -0.1728    0.8088 H         1 <0>         0.0669
     40 H10        -1.1760    0.9068   -2.9535 H         1 <0>         0.0655
     41 H11         3.0096   -0.9356   -1.4469 H         1 <0>         0.0634
     42 H12         5.8501    1.9452    1.4097 H         1 <0>         0.0676
     43 H13         0.5424    3.1375   -0.7474 H         1 <0>         0.0670
     44 H14         2.0770    4.4550    0.6914 H         1 <0>         0.0831
     45 H15         7.9710   -1.3992    2.2246 H         1 <0>         0.0660
     46 H16         6.6554   -0.4050    2.8856 H         1 <0>         0.0660
     47 H17         6.2902   -1.9445    2.0449 H         1 <0>         0.0660
     48 H18         6.3695   -3.0686   -2.3400 H         1 <0>         0.1453
     49 H19         6.2520   -1.3580   -2.5711 H         1 <0>         0.1453
@<TRIPOS>BOND
     1    1   15 1
     2    2   13 2
     3    3   18 1
     4    3   19 1
     5    4   25 1
     6    4   30 1
     7    5   29 2
     8    6   10 1
     9    6   13 am
    10    6   36 1
    11    7   13 am
    12    7   14 1
    13    7   37 1
    14    8   20 ar
    15    8   28 ar
    16    9   29 am
    17    9   48 1
    18    9   49 1
    19   10   11 1
    20   10   12 1
    21   10   31 1
    22   11   12 1
    23   11   32 1
    24   11   33 1
    25   12   34 1
    26   12   35 1
    27   14   15 ar
    28   14   16 ar
    29   15   21 ar
    30   16   22 ar
    31   16   38 1
    32   17   19 ar
    33   17   20 ar
    34   17   23 ar
    35   18   21 ar
    36   18   22 ar
    37   19   27 ar
    38   20   26 ar
    39   21   39 1
    40   22   40 1
    41   23   24 ar
    42   23   41 1
    43   24   25 ar
    44   24   29 1
    45   25   26 ar
    46   26   42 1
    47   27   28 ar
    48   27   43 1
    49   28   44 1
    50   30   45 1
    51   30   46 1
    52   30   47 1
