@<TRIPOS>MOLECULE
DB09477
   49    50     0     0     0
SMALL
USER_CHARGES

@<TRIPOS>ATOM
      1 O1          1.3963   -0.8853    1.6191 O.2       1 <0>        -0.2739
      2 O2          4.2522   -3.4295    1.1747 O.3       1 <0>        -0.4793
      3 O3          4.9804   -1.3254    1.6629 O.2       1 <0>        -0.2489
      4 O4         -0.7747    2.0989   -2.1646 O.3       1 <0>        -0.4795
      5 O5         -0.8914    3.4517   -0.3494 O.2       1 <0>        -0.2492
      6 N1          3.0119   -0.3274    0.0588 N.am      1 <0>        -0.2867
      7 N2          0.0605    1.3697    1.1865 N.3       1 <0>        -0.2937
      8 C1          3.4750   -1.6856   -0.1944 C.3       1 <0>         0.1228
      9 C2          4.2958   -1.5825   -1.4746 C.3       1 <0>        -0.0225
     10 C3          4.8341   -0.1543   -1.4371 C.3       1 <0>        -0.0349
     11 C4          3.6954    0.6319   -0.8051 C.3       1 <0>         0.0156
     12 C5          1.9488   -0.0484    0.9033 C.2       1 <0>         0.2330
     13 C6          1.4879    1.3873    0.9150 C.3       1 <0>         0.0827
     14 C7          4.3187   -2.0902    0.9768 C.2       1 <0>         0.3255
     15 C8         -0.6985    1.0476   -0.0159 C.3       1 <0>         0.1065
     16 C9         -2.0859    0.5274    0.3857 C.3       1 <0>        -0.0232
     17 C10         2.2359    2.1627    1.9807 C.3       1 <0>        -0.0411
     18 C11        -2.9834    0.1292   -0.7964 C.3       1 <0>        -0.0258
     19 C12        -0.8069    2.3269   -0.8268 C.2       1 <0>         0.3219
     20 C13        -4.3177   -0.4537   -0.4004 C.ar      1 <0>        -0.0473
     21 C14        -4.4495   -1.8297   -0.2121 C.ar      1 <0>        -0.0586
     22 C15        -5.4193    0.3832   -0.2220 C.ar      1 <0>        -0.0586
     23 C16        -5.6828   -2.3686    0.1542 C.ar      1 <0>        -0.0615
     24 C17        -6.6527   -0.1558    0.1445 C.ar      1 <0>        -0.0615
     25 C18        -6.7842   -1.5317    0.3325 C.ar      1 <0>        -0.0617
     26 H1          2.6139   -2.3563   -0.2849 H         1 <0>         0.0616
     27 H2          5.0966   -2.3246   -1.5453 H         1 <0>         0.0289
     28 H3          3.6399   -1.6990   -2.3459 H         1 <0>         0.0289
     29 H4          5.7243   -0.1074   -0.7988 H         1 <0>         0.0281
     30 H5          5.1073    0.2235   -2.4264 H         1 <0>         0.0281
     31 H6          4.0505    1.4975   -0.2419 H         1 <0>         0.0465
     32 H7          2.9866    0.9633   -1.5720 H         1 <0>         0.0465
     33 H8          1.6776    1.8840   -0.0402 H         1 <0>         0.0554
     34 H9         -0.1954    0.2791   -0.6157 H         1 <0>         0.0576
     35 H10        -0.2539    2.2573    1.5766 H         1 <0>         0.1234
     36 H11        -1.9635   -0.3434    1.0444 H         1 <0>         0.0289
     37 H12        -2.6116    1.2889    0.9790 H         1 <0>         0.0289
     38 H13         2.0585    1.7451    2.9791 H         1 <0>         0.0249
     39 H14         3.3177    2.1390    1.8164 H         1 <0>         0.0249
     40 H15         1.9236    3.2129    1.9962 H         1 <0>         0.0249
     41 H16        -2.4525   -0.5949   -1.4285 H         1 <0>         0.0314
     42 H17        -3.1642    0.9994   -1.4396 H         1 <0>         0.0314
     43 H18         4.7997   -3.7149    1.9369 H         1 <0>         0.2951
     44 H19        -3.5981   -2.4915   -0.3460 H         1 <0>         0.0620
     45 H20        -5.3286    1.4570   -0.3635 H         1 <0>         0.0620
     46 H21        -0.8347    2.9319   -2.6791 H         1 <0>         0.2951
     47 H22        -5.7852   -3.4397    0.3012 H         1 <0>         0.0618
     48 H23        -7.5103    0.4957    0.2840 H         1 <0>         0.0618
     49 H24        -7.7444   -1.9513    0.6182 H         1 <0>         0.0618
@<TRIPOS>BOND
     1    1   12 2
     2    2   14 1
     3    2   43 1
     4    3   14 2
     5    4   19 1
     6    4   46 1
     7    5   19 2
     8    6    8 1
     9    6   11 1
    10    6   12 am
    11    7   13 1
    12    7   15 1
    13    7   35 1
    14    8    9 1
    15    8   14 1
    16    8   26 1
    17    9   10 1
    18    9   27 1
    19    9   28 1
    20   10   11 1
    21   10   29 1
    22   10   30 1
    23   11   31 1
    24   11   32 1
    25   12   13 1
    26   13   17 1
    27   13   33 1
    28   15   16 1
    29   15   19 1
    30   15   34 1
    31   16   18 1
    32   16   36 1
    33   16   37 1
    34   17   38 1
    35   17   39 1
    36   17   40 1
    37   18   20 1
    38   18   41 1
    39   18   42 1
    40   20   21 ar
    41   20   22 ar
    42   21   23 ar
    43   21   44 1
    44   22   24 ar
    45   22   45 1
    46   23   25 ar
    47   23   47 1
    48   24   25 ar
    49   24   48 1
    50   25   49 1
