@<TRIPOS>MOLECULE
DB09133
   29    29     0     0     0
SMALL
USER_CHARGES

@<TRIPOS>ATOM
      1 I1         -0.0505    2.7529   -0.8157 I         1 <0>        -0.0411
      2 I2          3.1022   -2.4597   -0.3928 I         1 <0>        -0.0421
      3 I3         -2.9934   -2.5391   -0.0495 I         1 <0>        -0.0410
      4 O1          2.9386    0.8984   -1.8442 O.2       1 <0>        -0.2701
      5 O2          0.1552   -3.9546    1.2095 O.3       1 <0>        -0.4771
      6 O3          0.0355   -4.4047   -1.0152 O.2       1 <0>        -0.2451
      7 O4         -2.7820    1.1365    1.8283 O.2       1 <0>        -0.2758
      8 N1         -2.4249    0.6081   -0.4398 N.am      1 <0>        -0.2840
      9 N2          3.0541    1.1850    0.4539 N.am      1 <0>        -0.3144
     10 C1          1.2135   -0.0401   -0.5630 C.ar      1 <0>         0.0655
     11 C2         -1.1987   -0.0725   -0.4295 C.ar      1 <0>         0.0615
     12 C3         -0.0062    0.6365   -0.5750 C.ar      1 <0>         0.0487
     13 C4          0.0483   -2.1347   -0.2596 C.ar      1 <0>         0.0875
     14 C5          1.2407   -1.4257   -0.4052 C.ar      1 <0>         0.0415
     15 C6         -1.1714   -1.4581   -0.2720 C.ar      1 <0>         0.0506
     16 C7          2.4646    0.7043   -0.7160 C.2       1 <0>         0.2459
     17 C8          0.0763   -3.5890   -0.0956 C.2       1 <0>         0.3389
     18 C9         -3.1153    1.1484    0.6477 C.2       1 <0>         0.2141
     19 C10         4.2761    1.9566    0.4653 C.3       1 <0>         0.0004
     20 C11        -4.4034    1.8028    0.2156 C.3       1 <0>         0.0125
     21 H1         -2.7877    0.8068   -1.3696 H         1 <0>         0.1549
     22 H2          2.5922    1.0159    1.3430 H         1 <0>         0.1487
     23 H3          4.0123    3.0164    0.4275 H         1 <0>         0.0426
     24 H4          4.9007    1.7021   -0.3943 H         1 <0>         0.0426
     25 H5          4.8110    1.7434    1.3935 H         1 <0>         0.0426
     26 H6         -4.1797    2.7147   -0.3447 H         1 <0>         0.0323
     27 H7         -5.0007    2.0593    1.0949 H         1 <0>         0.0323
     28 H8         -4.9816    1.1199   -0.4136 H         1 <0>         0.0323
     29 H9          0.1742   -4.9296    1.3160 H         1 <0>         0.2954
@<TRIPOS>BOND
     1    1   12 1
     2    2   14 1
     3    3   15 1
     4    4   16 2
     5    5   17 1
     6    5   29 1
     7    6   17 2
     8    7   18 2
     9    8   11 1
    10    8   18 am
    11    8   21 1
    12    9   16 am
    13    9   19 1
    14    9   22 1
    15   10   12 ar
    16   10   14 ar
    17   10   16 1
    18   11   12 ar
    19   11   15 ar
    20   13   14 ar
    21   13   15 ar
    22   13   17 1
    23   18   20 1
    24   19   23 1
    25   19   24 1
    26   19   25 1
    27   20   26 1
    28   20   27 1
    29   20   28 1
