@<TRIPOS>MOLECULE
DB09394
    8     7     0     0     0
SMALL
USER_CHARGES

@<TRIPOS>ATOM
      1 P1          0.1644   -0.2825   -0.3966 P.3       1 <0>         0.4698
      2 O1         -0.4030    1.1904   -0.7393 O.3       1 <0>        -0.3027
      3 O2         -1.1372   -1.0916    0.1162 O.3       1 <0>        -0.3027
      4 O3          1.0729   -0.0860    0.9235 O.3       1 <0>        -0.3027
      5 O4          0.8776   -0.9499   -1.5376 O.2       1 <0>        -0.2277
      6 H1         -0.8958    1.6827   -0.0486 H         1 <0>         0.2220
      7 H2         -1.6647   -0.7226    0.8564 H         1 <0>         0.2220
      8 H3          1.9857    0.2595    0.8259 H         1 <0>         0.2220
@<TRIPOS>BOND
     1    1    2 1
     2    1    3 1
     3    1    4 1
     4    1    5 2
     5    2    6 1
     6    3    7 1
     7    4    8 1
