@<TRIPOS>MOLECULE
DB09272
   77    80     0     0     0
SMALL
USER_CHARGES

@<TRIPOS>ATOM
      1 O1         -0.8213   -1.8975   -1.1789 O.2       1 <0>        -0.2739
      2 O2          2.6732    5.1941    0.6723 O.3       1 <0>        -0.4943
      3 O3          6.3704   -0.7014   -2.4666 O.2       1 <0>        -0.2704
      4 O4          4.3185    1.4483    0.6287 O.3       1 <0>        -0.4770
      5 O5          4.7344    3.5317    1.4369 O.2       1 <0>        -0.2450
      6 N1         -0.9073   -0.0051    0.1535 N.am      1 <0>        -0.2861
      7 N2         -0.8151   -2.7206    1.8163 N.3       1 <0>        -0.3197
      8 N3         -4.0229    0.4787   -0.3083 N.pl3     1 <0>        -0.3403
      9 N4         -3.2356   -0.5940   -2.0866 N.2       1 <0>        -0.2383
     10 N5          7.2382   -1.1222   -0.3861 N.am      1 <0>        -0.3253
     11 C1         -1.6201    0.8187   -0.8144 C.3       1 <0>         0.0814
     12 C2          0.2071   -2.0876    0.9815 C.3       1 <0>         0.0865
     13 C3          1.1175   -3.1821    0.3948 C.3       1 <0>        -0.0034
     14 C4         -0.5553   -1.3323   -0.1127 C.2       1 <0>         0.2336
     15 C5         -0.5847    0.6465    1.4189 C.3       1 <0>         0.0405
     16 C6          2.4558   -2.6419   -0.0551 C.ar      1 <0>        -0.0396
     17 C7         -2.9725    0.2044   -1.1060 C.cat     1 <0>         0.1279
     18 C8         -0.7823    1.0257   -2.0716 C.3       1 <0>        -0.0393
     19 C9          0.2895    1.8560    1.2202 C.ar      1 <0>        -0.0291
     20 C10         2.6047   -2.1871   -1.3568 C.ar      1 <0>        -0.0462
     21 C11         3.5142   -2.6119    0.8408 C.ar      1 <0>        -0.0462
     22 C12        -5.0806   -0.2148   -0.8256 C.2       1 <0>         0.0661
     23 C13         3.8405   -1.6912   -1.7724 C.ar      1 <0>        -0.0464
     24 C14         4.7500   -2.1159    0.4251 C.ar      1 <0>        -0.0464
     25 C15         4.9130   -1.6554   -0.8814 C.ar      1 <0>         0.0370
     26 C16         1.6696    1.7125    1.2359 C.ar      1 <0>        -0.0395
     27 C17        -0.2984    3.0977    1.0238 C.ar      1 <0>        -0.0536
     28 C18         1.4718   -2.2140   -2.3302 C.3       1 <0>        -0.0394
     29 C19         3.3655   -3.1000    2.2447 C.3       1 <0>        -0.0394
     30 C20        -4.5703   -0.8686   -1.9226 C.2       1 <0>         0.0535
     31 C21         2.4787    2.8336    1.0514 C.ar      1 <0>         0.1006
     32 C22        -6.4017   -0.1869   -0.2557 C.ar      1 <0>        -0.0002
     33 C23         0.5107    4.2188    0.8391 C.ar      1 <0>        -0.0188
     34 C24         1.8992    4.0869    0.8528 C.ar      1 <0>         0.1341
     35 C25         6.2007   -1.1359   -1.3138 C.2       1 <0>         0.2415
     36 C26        -6.5690    0.0009    1.1180 C.ar      1 <0>        -0.0526
     37 C27        -7.5218   -0.3480   -1.0743 C.ar      1 <0>        -0.0526
     38 C28         3.9260    2.6745    1.0693 C.2       1 <0>         0.3404
     39 C29        -7.8495    0.0274    1.6704 C.ar      1 <0>        -0.0611
     40 C30        -8.8025   -0.3215   -0.5220 C.ar      1 <0>        -0.0611
     41 C31        -8.9663   -0.1339    0.8505 C.ar      1 <0>        -0.0617
     42 C32         3.0358    5.5191   -0.6679 C.3       1 <0>         0.0788
     43 H1         -1.8403    1.8038   -0.4056 H         1 <0>         0.0578
     44 H2          0.8385   -1.4391    1.5849 H         1 <0>         0.0558
     45 H3          1.2895   -3.9541    1.1567 H         1 <0>         0.0333
     46 H4          0.6203   -3.7601   -0.3903 H         1 <0>         0.0333
     47 H5         -1.5442    0.9637    1.8521 H         1 <0>         0.0514
     48 H6         -0.1636    0.0084    2.1933 H         1 <0>         0.0514
     49 H7          0.2317    1.3603   -1.8296 H         1 <0>         0.0252
     50 H8         -1.2429    1.7915   -2.7069 H         1 <0>         0.0252
     51 H9         -0.7065    0.1255   -2.6872 H         1 <0>         0.0252
     52 H10        -1.4525   -2.0169    2.1858 H         1 <0>         0.1189
     53 H11        -1.3777   -3.3617    1.2583 H         1 <0>         0.1189
     54 H12        -4.0292    1.0829    0.5037 H         1 <0>         0.1671
     55 H13         3.9571   -1.3307   -2.7918 H         1 <0>         0.0628
     56 H14         5.5494   -2.1105    1.1561 H         1 <0>         0.0628
     57 H15         2.1016    0.7292    1.4025 H         1 <0>         0.0630
     58 H16        -1.3751    3.2350    1.0546 H         1 <0>         0.0622
     59 H17         0.8103   -3.0749   -2.2471 H         1 <0>         0.0278
     60 H18         0.9721   -1.2486   -2.3484 H         1 <0>         0.0278
     61 H19         1.8885   -2.3306   -3.3413 H         1 <0>         0.0278
     62 H20         4.2542   -2.8734    2.8451 H         1 <0>         0.0278
     63 H21         2.5242   -2.6179    2.7513 H         1 <0>         0.0278
     64 H22         3.2368   -4.1869    2.2637 H         1 <0>         0.0278
     65 H23        -5.0871   -1.5274   -2.6062 H         1 <0>         0.0851
     66 H24         0.0524    5.1938    0.6959 H         1 <0>         0.0654
     67 H25        -5.7189    0.1187    1.7856 H         1 <0>         0.0624
     68 H26        -7.4225   -0.4902   -2.1478 H         1 <0>         0.0624
     69 H27        -7.9775    0.1709    2.7394 H         1 <0>         0.0618
     70 H28        -9.6723   -0.4458   -1.1604 H         1 <0>         0.0618
     71 H29         8.1446   -0.7574   -0.6624 H         1 <0>         0.1453
     72 H30         7.1891   -1.4495    0.5698 H         1 <0>         0.1453
     73 H31        -9.9633   -0.1137    1.2805 H         1 <0>         0.0618
     74 H32         2.1449    5.7669   -1.2537 H         1 <0>         0.0660
     75 H33         3.6917    6.3934   -0.6427 H         1 <0>         0.0660
     76 H34         3.5750    4.6912   -1.1390 H         1 <0>         0.0660
     77 H35         5.2942    1.3485    0.6450 H         1 <0>         0.2954
@<TRIPOS>BOND
     1    1   14 2
     2    2   34 1
     3    2   42 1
     4    3   35 2
     5    4   38 1
     6    4   77 1
     7    5   38 2
     8    6   11 1
     9    6   14 am
    10    6   15 1
    11    7   12 1
    12    7   52 1
    13    7   53 1
    14    8   17 1
    15    8   22 2
    16    8   54 1
    17    9   17 1
    18    9   30 2
    19   10   35 am
    20   10   71 1
    21   10   72 1
    22   11   17 1
    23   11   18 1
    24   11   43 1
    25   12   13 1
    26   12   14 1
    27   12   44 1
    28   13   16 1
    29   13   45 1
    30   13   46 1
    31   15   19 1
    32   15   47 1
    33   15   48 1
    34   16   20 ar
    35   16   21 ar
    36   18   49 1
    37   18   50 1
    38   18   51 1
    39   19   26 ar
    40   19   27 ar
    41   20   23 ar
    42   20   28 1
    43   21   24 ar
    44   21   29 1
    45   22   30 1
    46   22   32 1
    47   23   25 ar
    48   23   55 1
    49   24   25 ar
    50   24   56 1
    51   25   35 1
    52   26   31 ar
    53   26   57 1
    54   27   33 ar
    55   27   58 1
    56   28   59 1
    57   28   60 1
    58   28   61 1
    59   29   62 1
    60   29   63 1
    61   29   64 1
    62   30   65 1
    63   31   34 ar
    64   31   38 1
    65   32   36 ar
    66   32   37 ar
    67   33   34 ar
    68   33   66 1
    69   36   39 ar
    70   36   67 1
    71   37   40 ar
    72   37   68 1
    73   39   41 ar
    74   39   69 1
    75   40   41 ar
    76   40   70 1
    77   41   73 1
    78   42   74 1
    79   42   75 1
    80   42   76 1
