@<TRIPOS>MOLECULE
DB09015
   56    59     0     0     0
SMALL
USER_CHARGES

@<TRIPOS>ATOM
      1 O1          3.7234    1.1711   -1.3709 O.3       1 <0>        -0.3880
      2 O2         -6.5035   -2.0429    1.0293 O.2       1 <0>        -0.2927
      3 O3          6.5274   -2.5976    0.6544 O.3       1 <0>        -0.4806
      4 O4          4.5280   -3.4127   -0.0507 O.2       1 <0>        -0.2510
      5 C1          1.3873    0.7785   -0.6953 C.3       1 <0>         0.0001
      6 C2          0.7720    0.6061    0.7157 C.3       1 <0>        -0.0264
      7 C3         -0.7414    0.8681    0.7311 C.3       1 <0>        -0.0156
      8 C4          2.8997    0.5672   -0.3758 C.3       1 <0>         0.0722
      9 C5         -1.4179   -0.1709   -0.2210 C.3       1 <0>        -0.0251
     10 C6          0.7223   -0.2394   -1.6389 C.3       1 <0>        -0.0444
     11 C7          1.6794    1.4587    1.5987 C.3       1 <0>        -0.0465
     12 C8         -0.8142   -0.1060   -1.6457 C.3       1 <0>        -0.0483
     13 C9          3.0810    1.3048    0.9785 C.3       1 <0>        -0.0232
     14 C10        -2.9856   -0.0892   -0.1491 C.3       1 <0>        -0.0032
     15 C11         1.1835    2.2035   -1.2926 C.3       1 <0>        -0.0567
     16 C12         3.3493   -0.8949   -0.2611 C.3       1 <0>        -0.0134
     17 C13        -1.3477    0.7950    2.1073 C.2       1 <0>        -0.0801
     18 C14        -3.4219   -0.2752    1.3124 C.2       1 <0>        -0.0382
     19 C15        -3.6047   -1.2256   -1.0066 C.3       1 <0>        -0.0363
     20 C16        -3.5092    1.2744   -0.6583 C.3       1 <0>        -0.0553
     21 C17        -2.5544    0.2654    2.3496 C.2       1 <0>        -0.0616
     22 C18         4.8154   -1.0210    0.1167 C.3       1 <0>         0.0474
     23 C19        -5.1045   -1.3921   -0.7979 C.3       1 <0>         0.0107
     24 C20        -4.5407   -0.9270    1.6716 C.2       1 <0>        -0.0155
     25 C21        -5.4563   -1.5112    0.6631 C.2       1 <0>         0.1564
     26 C22         5.2467   -2.4620    0.2310 C.2       1 <0>         0.3048
     27 H1          0.9107   -0.4344    1.0467 H         1 <0>         0.0313
     28 H2         -0.9248    1.8870    0.3744 H         1 <0>         0.0349
     29 H3         -1.1482   -1.1712    0.1597 H         1 <0>         0.0315
     30 H4          0.9559   -1.2643   -1.3279 H         1 <0>         0.0272
     31 H5          1.1073   -0.1282   -2.6596 H         1 <0>         0.0272
     32 H6          1.6696    1.1199    2.6400 H         1 <0>         0.0269
     33 H7          1.3731    2.5108    1.5924 H         1 <0>         0.0269
     34 H8         -1.1052    0.8238   -2.1441 H         1 <0>         0.0269
     35 H9         -1.2101   -0.9217   -2.2603 H         1 <0>         0.0269
     36 H10         3.5385    2.2934    0.8526 H         1 <0>         0.0293
     37 H11         3.7073    0.7737    1.6971 H         1 <0>         0.0293
     38 H12         1.6555    2.9852   -0.6893 H         1 <0>         0.0236
     39 H13         1.6109    2.2650   -2.3005 H         1 <0>         0.0236
     40 H14         0.1304    2.4793   -1.3888 H         1 <0>         0.0236
     41 H15         2.7405   -1.4453    0.4646 H         1 <0>         0.0298
     42 H16         3.2152   -1.3917   -1.2310 H         1 <0>         0.0298
     43 H17        -0.7914    1.2134    2.9412 H         1 <0>         0.0575
     44 H18        -3.1133   -2.1773   -0.7604 H         1 <0>         0.0278
     45 H19        -3.4269   -1.0486   -2.0739 H         1 <0>         0.0278
     46 H20        -4.5950    1.3634   -0.5386 H         1 <0>         0.0238
     47 H21        -3.0734    2.1188   -0.1158 H         1 <0>         0.0238
     48 H22        -3.2896    1.4140   -1.7219 H         1 <0>         0.0238
     49 H23        -2.9117    0.2403    3.3762 H         1 <0>         0.0617
     50 H24         3.7022    2.1361   -1.2643 H         1 <0>         0.2102
     51 H25         5.4503   -0.5532   -0.6438 H         1 <0>         0.0378
     52 H26         5.0370   -0.5648    1.0837 H         1 <0>         0.0378
     53 H27        -5.4339   -2.3054   -1.3063 H         1 <0>         0.0345
     54 H28        -5.6631   -0.5511   -1.2208 H         1 <0>         0.0345
     55 H29        -4.8277   -1.0526    2.7114 H         1 <0>         0.0655
     56 H30         6.7966   -3.5391    0.7119 H         1 <0>         0.2951
@<TRIPOS>BOND
     1    1    8 1
     2    1   50 1
     3    2   25 2
     4    3   26 1
     5    3   56 1
     6    4   26 2
     7    5    6 1
     8    5    8 1
     9    5   10 1
    10    5   15 1
    11    6    7 1
    12    6   11 1
    13    6   27 1
    14    7    9 1
    15    7   17 1
    16    7   28 1
    17    8   13 1
    18    8   16 1
    19    9   12 1
    20    9   14 1
    21    9   29 1
    22   10   12 1
    23   10   30 1
    24   10   31 1
    25   11   13 1
    26   11   32 1
    27   11   33 1
    28   12   34 1
    29   12   35 1
    30   13   36 1
    31   13   37 1
    32   14   18 1
    33   14   19 1
    34   14   20 1
    35   15   38 1
    36   15   39 1
    37   15   40 1
    38   16   22 1
    39   16   41 1
    40   16   42 1
    41   17   21 2
    42   17   43 1
    43   18   21 1
    44   18   24 2
    45   19   23 1
    46   19   44 1
    47   19   45 1
    48   20   46 1
    49   20   47 1
    50   20   48 1
    51   21   49 1
    52   22   26 1
    53   22   51 1
    54   22   52 1
    55   23   25 1
    56   23   53 1
    57   23   54 1
    58   24   25 1
    59   24   55 1
