@<TRIPOS>MOLECULE
DB09256
   23    24     0     0     0
SMALL
USER_CHARGES

@<TRIPOS>ATOM
      1 F1         -2.7157    2.6546    0.3452 F         1 <0>        -0.1983
      2 O1          1.2993    0.5794   -1.1930 O.3       1 <0>        -0.3564
      3 O2         -1.3395   -2.5074   -0.4942 O.2       1 <0>        -0.2464
      4 O3         -4.5777    0.6735    0.3397 O.2       1 <0>        -0.2646
      5 N1         -0.6890   -0.2726   -0.2944 N.am      1 <0>        -0.2713
      6 N2         -2.9505   -0.9240   -0.0782 N.am      1 <0>        -0.2725
      7 C1          0.7030   -0.5349   -0.5119 C.3       1 <0>         0.1394
      8 C2          1.4772   -0.7281    0.7792 C.3       1 <0>        -0.0051
      9 C3          2.8477   -0.2296    0.3974 C.3       1 <0>        -0.0253
     10 C4          2.5112    0.9321   -0.5113 C.3       1 <0>         0.0503
     11 C5         -1.6237   -1.3227   -0.3047 C.2       1 <0>         0.3315
     12 C6         -1.0706    1.0358   -0.0776 C.2       1 <0>         0.0524
     13 C7         -2.3391    1.3805    0.1339 C.2       1 <0>         0.2036
     14 C8         -3.4060    0.3681    0.1463 C.2       1 <0>         0.2894
     15 H1          0.8223   -1.4126   -1.1586 H         1 <0>         0.0839
     16 H2          1.4713   -1.7660    1.1243 H         1 <0>         0.0309
     17 H3          1.0734   -0.1076    1.5891 H         1 <0>         0.0309
     18 H4          3.4648    0.0601    1.2517 H         1 <0>         0.0289
     19 H5          3.3800   -1.0048   -0.1664 H         1 <0>         0.0289
     20 H6          2.3215    1.8447    0.0638 H         1 <0>         0.0561
     21 H7          3.2987    1.1370   -1.2419 H         1 <0>         0.0561
     22 H8         -0.3076    1.8047   -0.0587 H         1 <0>         0.0842
     23 H9         -3.6508   -1.6604   -0.0795 H         1 <0>         0.1735
@<TRIPOS>BOND
     1    1   13 1
     2    2    7 1
     3    2   10 1
     4    3   11 2
     5    4   14 2
     6    5    7 1
     7    5   11 am
     8    5   12 1
     9    6   11 am
    10    6   14 am
    11    6   23 1
    12    7    8 1
    13    7   15 1
    14    8    9 1
    15    8   16 1
    16    8   17 1
    17    9   10 1
    18    9   18 1
    19    9   19 1
    20   10   20 1
    21   10   21 1
    22   12   13 2
    23   12   22 1
    24   13   14 1
