@<TRIPOS>MOLECULE
DB09269
   18    18     0     0     0
SMALL
USER_CHARGES

@<TRIPOS>ATOM
      1 O1          3.6860    0.0294   -0.1743 O.3       1 <0>        -0.4804
      2 O2          1.9866   -0.0554   -1.6772 O.2       1 <0>        -0.2507
      3 C1          0.0166   -0.0030    0.3666 C.ar      1 <0>        -0.0368
      4 C2          1.4699   -0.0095    0.7021 C.3       1 <0>         0.0699
      5 C3         -0.6574    1.2079    0.2088 C.ar      1 <0>        -0.0581
      6 C4         -0.6686   -1.2079    0.2109 C.ar      1 <0>        -0.0581
      7 C5         -2.0166    1.2140   -0.1045 C.ar      1 <0>        -0.0615
      8 C6         -2.0278   -1.2020   -0.1026 C.ar      1 <0>        -0.0615
      9 C7         -2.7018    0.0091   -0.2603 C.ar      1 <0>        -0.0617
     10 C8          2.3714   -0.0152   -0.5167 C.2       1 <0>         0.3091
     11 H1          1.7095   -0.8920    1.3075 H         1 <0>         0.0426
     12 H2          1.7151    0.8734    1.3049 H         1 <0>         0.0426
     13 H3         -0.1346    2.1536    0.3255 H         1 <0>         0.0620
     14 H4         -0.1546   -2.1582    0.3293 H         1 <0>         0.0620
     15 H5         -2.5414    2.1568   -0.2279 H         1 <0>         0.0618
     16 H6         -2.5613   -2.1401   -0.2243 H         1 <0>         0.0618
     17 H7         -3.7600    0.0137   -0.5046 H         1 <0>         0.0618
     18 H8          4.2692    0.0253   -0.9631 H         1 <0>         0.2951
@<TRIPOS>BOND
     1    1   10 1
     2    1   18 1
     3    2   10 2
     4    3    4 1
     5    3    5 ar
     6    3    6 ar
     7    4   10 1
     8    4   11 1
     9    4   12 1
    10    5    7 ar
    11    5   13 1
    12    6    8 ar
    13    6   14 1
    14    7    9 ar
    15    7   15 1
    16    8    9 ar
    17    8   16 1
    18    9   17 1
