@<TRIPOS>MOLECULE
DB09348
    9     9     0     0     0
SMALL
USER_CHARGES

@<TRIPOS>ATOM
      1 O1          0.0829    1.3578    0.0007 O.3       1 <0>        -0.4640
      2 O2          2.2916    0.6531   -0.0002 O.2       1 <0>        -0.2507
      3 C1          0.1497   -0.7591    0.0000 C.3       1 <0>         0.0791
      4 C2         -0.9324    0.3164   -0.0000 C.3       1 <0>         0.1025
      5 C3          1.0981    0.4528   -0.0001 C.2       1 <0>         0.3104
      6 H1          0.2097   -1.3715   -0.9011 H         1 <0>         0.0411
      7 H2          0.2099   -1.3714    0.9012 H         1 <0>         0.0411
      8 H3         -1.5544    0.3611   -0.8984 H         1 <0>         0.0703
      9 H4         -1.5550    0.3607    0.8979 H         1 <0>         0.0703
@<TRIPOS>BOND
     1    1    4 1
     2    1    5 1
     3    2    5 2
     4    3    4 1
     5    3    5 1
     6    3    6 1
     7    3    7 1
     8    4    8 1
     9    4    9 1
