@<TRIPOS>MOLECULE
DB09063
   74    77     0     0     0
SMALL
USER_CHARGES

@<TRIPOS>ATOM
      1 Cl1        -5.7745    2.8870    1.9617 Cl        1 <0>        -0.0784
      2 S1         -5.5147   -1.2471   -1.0198 S.o2      1 <0>         0.0010
      3 O1          2.5211    3.1055    0.5218 O.3       1 <0>        -0.4875
      4 O2         -6.0111   -2.4047   -1.7482 O.2       1 <0>        -0.1690
      5 O3         -6.4506   -0.2911   -0.4498 O.2       1 <0>        -0.1690
      6 N1          6.1354   -2.6090   -0.9313 N.3       1 <0>        -0.3159
      7 N2          0.0165    2.5469    1.6764 N.pl3     1 <0>        -0.2806
      8 N3         -4.1678    0.4682    1.1049 N.pl3     1 <0>        -0.2967
      9 N4         -2.0618    1.5049    1.3902 N.ar      1 <0>        -0.1977
     10 N5         -1.9136    3.7884    2.1457 N.ar      1 <0>        -0.2211
     11 C1          3.6051   -1.6478    0.1852 C.3       1 <0>        -0.0132
     12 C2          4.9282   -1.5798    0.9661 C.3       1 <0>        -0.0336
     13 C3          3.8883   -1.6544   -1.3262 C.3       1 <0>        -0.0336
     14 C4          5.8920   -2.6754    0.5098 C.3       1 <0>        -0.0036
     15 C5          4.8932   -2.7472   -1.6916 C.3       1 <0>        -0.0036
     16 C6          2.6439   -0.5453    0.5857 C.ar      1 <0>        -0.0377
     17 C7          1.4067   -0.8443    1.1562 C.ar      1 <0>        -0.0450
     18 C8          3.0121    0.7837    0.3756 C.ar      1 <0>        -0.0144
     19 C9          2.1432    1.8135    0.7363 C.ar      1 <0>         0.1423
     20 C10         0.5377    0.1855    1.5168 C.ar      1 <0>        -0.0337
     21 C11         0.9058    1.5145    1.3070 C.ar      1 <0>         0.0760
     22 C12         0.9911   -2.2596    1.3912 C.3       1 <0>        -0.0394
     23 C13         2.7965    3.4839   -0.8253 C.3       1 <0>         0.0947
     24 C14        -4.4290   -0.3670   -2.1178 C.3       1 <0>         0.0764
     25 C15        -1.3876    2.6169    1.7407 C.ar      1 <0>         0.2213
     26 C16        -4.4669   -1.8014    0.2692 C.ar      1 <0>         0.1095
     27 C17         1.8328    4.5840   -1.2431 C.3       1 <0>        -0.0281
     28 C18         4.2467    3.9293   -0.9339 C.3       1 <0>        -0.0281
     29 C19        -3.9082   -0.9095    1.1845 C.ar      1 <0>         0.0575
     30 C20        -5.2162    0.2170   -3.2815 C.3       1 <0>        -0.0427
     31 C21        -3.3153   -1.2828   -2.6039 C.3       1 <0>        -0.0427
     32 C22        -4.1938   -3.1656    0.3688 C.ar      1 <0>        -0.0350
     33 C23        -3.4053    1.6070    1.4631 C.ar      1 <0>         0.1465
     34 C24        -3.0762   -1.3819    2.1995 C.ar      1 <0>        -0.0386
     35 C25        -3.3617   -3.6381    1.3839 C.ar      1 <0>        -0.0598
     36 C26        -2.8027   -2.7461    2.2991 C.ar      1 <0>        -0.0599
     37 C27        -4.0668    2.7503    1.8627 C.ar      1 <0>         0.0991
     38 C28        -3.2616    3.8205    2.1955 C.ar      1 <0>         0.0528
     39 H1          3.1753   -2.6294    0.4102 H         1 <0>         0.0350
     40 H2          2.9560   -1.8167   -1.8814 H         1 <0>         0.0283
     41 H3          4.2831   -0.6853   -1.6572 H         1 <0>         0.0283
     42 H4          5.4138   -0.6045    0.8348 H         1 <0>         0.0283
     43 H5          4.7350   -1.6893    2.0406 H         1 <0>         0.0283
     44 H6          4.4586   -3.7393   -1.5195 H         1 <0>         0.0424
     45 H7          5.1232   -2.6877   -2.7610 H         1 <0>         0.0424
     46 H8          6.8462   -2.5638    1.0363 H         1 <0>         0.0424
     47 H9          5.5008   -3.6645    0.7771 H         1 <0>         0.0424
     48 H10         6.5598   -1.7081   -1.1532 H         1 <0>         0.1219
     49 H11         3.9786    1.0221   -0.0583 H         1 <0>         0.0658
     50 H12        -0.3931   -0.0735    2.0072 H         1 <0>         0.0640
     51 H13         0.0153   -2.3140    1.8811 H         1 <0>         0.0278
     52 H14         1.6977   -2.7693    2.0547 H         1 <0>         0.0278
     53 H15         0.9044   -2.8022    0.4443 H         1 <0>         0.0278
     54 H16         0.4616    3.4498    1.8116 H         1 <0>         0.1551
     55 H17         2.6442    2.6420   -1.5147 H         1 <0>         0.0727
     56 H18        -3.9914    0.4646   -1.5578 H         1 <0>         0.0534
     57 H19         1.9228    5.4538   -0.5833 H         1 <0>         0.0265
     58 H20         2.0149    4.9047   -2.2734 H         1 <0>         0.0265
     59 H21         0.7973    4.2355   -1.1638 H         1 <0>         0.0265
     60 H22         4.4460    4.7721   -0.2625 H         1 <0>         0.0265
     61 H23         4.4939    4.2319   -1.9560 H         1 <0>         0.0265
     62 H24         4.9278    3.1257   -0.6363 H         1 <0>         0.0265
     63 H25        -2.6685   -0.7542   -3.3128 H         1 <0>         0.0248
     64 H26        -2.6764   -1.6218   -1.7833 H         1 <0>         0.0248
     65 H27        -3.7082   -2.1696   -3.1124 H         1 <0>         0.0248
     66 H28        -4.5609    0.7900   -3.9458 H         1 <0>         0.0248
     67 H29        -6.0029    0.8911   -2.9265 H         1 <0>         0.0248
     68 H30        -5.6966   -0.5679   -3.8757 H         1 <0>         0.0248
     69 H31        -4.6107   -3.8854   -0.3293 H         1 <0>         0.0637
     70 H32        -5.0263    0.7144    0.6228 H         1 <0>         0.1537
     71 H33        -2.6444   -0.7125    2.9386 H         1 <0>         0.0637
     72 H34        -3.1491   -4.7002    1.4622 H         1 <0>         0.0618
     73 H35        -2.1603   -3.1150    3.0933 H         1 <0>         0.0618
     74 H36        -3.6785    4.7678    2.5234 H         1 <0>         0.0847
@<TRIPOS>BOND
     1    1   37 1
     2    2    4 2
     3    2    5 2
     4    2   24 1
     5    2   26 1
     6    3   19 1
     7    3   23 1
     8    6   14 1
     9    6   15 1
    10    6   48 1
    11    7   21 1
    12    7   25 1
    13    7   54 1
    14    8   29 1
    15    8   33 1
    16    8   70 1
    17    9   25 ar
    18    9   33 ar
    19   10   25 ar
    20   10   38 ar
    21   11   12 1
    22   11   13 1
    23   11   16 1
    24   11   39 1
    25   12   14 1
    26   12   42 1
    27   12   43 1
    28   13   15 1
    29   13   40 1
    30   13   41 1
    31   14   46 1
    32   14   47 1
    33   15   44 1
    34   15   45 1
    35   16   17 ar
    36   16   18 ar
    37   17   20 ar
    38   17   22 1
    39   18   19 ar
    40   18   49 1
    41   19   21 ar
    42   20   21 ar
    43   20   50 1
    44   22   51 1
    45   22   52 1
    46   22   53 1
    47   23   27 1
    48   23   28 1
    49   23   55 1
    50   24   30 1
    51   24   31 1
    52   24   56 1
    53   26   29 ar
    54   26   32 ar
    55   27   57 1
    56   27   58 1
    57   27   59 1
    58   28   60 1
    59   28   61 1
    60   28   62 1
    61   29   34 ar
    62   30   66 1
    63   30   67 1
    64   30   68 1
    65   31   63 1
    66   31   64 1
    67   31   65 1
    68   32   35 ar
    69   32   69 1
    70   33   37 ar
    71   34   36 ar
    72   34   71 1
    73   35   36 ar
    74   35   72 1
    75   36   73 1
    76   37   38 ar
    77   38   74 1
