@<TRIPOS>MOLECULE
DB09112
    4     3     0     0     0
SMALL
USER_CHARGES

@<TRIPOS>ATOM
      1 O1          0.6416    0.4476    0.0000 O.3       1 <0>        -0.3782
      2 O2         -1.6100    0.1728    0.0000 O.2       1 <0>        -0.1056
      3 N1         -0.4381   -0.4683    0.0000 N.2       1 <0>         0.1528
      4 H1          1.4065   -0.1522    0.0000 H         1 <0>         0.3311
@<TRIPOS>BOND
     1    1    3 1
     2    1    4 1
     3    2    3 2
