@<TRIPOS>MOLECULE
DB09149
   51    52     0     0     0
SMALL
USER_CHARGES

@<TRIPOS>ATOM
      1 F1         10.9670   -0.5122    1.2041 F         1 <0>        -0.2467
      2 O1          4.9565    0.7625    0.1819 O.3       1 <0>        -0.3742
      3 O2          2.3513    0.8448   -0.8378 O.3       1 <0>        -0.4740
      4 O3          8.3950   -0.4089    0.2210 O.3       1 <0>        -0.3750
      5 N1         -9.5872   -0.3407    0.2398 N.pl3     1 <0>        -0.3469
      6 N2          0.2679    1.2624    0.0943 N.ar      1 <0>        -0.2207
      7 C1          4.3235    1.9991   -0.1241 C.3       1 <0>         0.0819
      8 C2          6.3667    0.8481    0.0304 C.3       1 <0>         0.0711
      9 C3          2.8255    1.8457    0.0550 C.3       1 <0>         0.1145
     10 C4          6.9852   -0.4885    0.3921 C.3       1 <0>         0.0711
     11 C5         -5.4533    0.3704    0.0209 C.ar      1 <0>        -0.0249
     12 C6         -1.6623    0.0281   -0.6776 C.ar      1 <0>        -0.0067
     13 C7         -8.1991   -0.1020    0.1657 C.ar      1 <0>         0.0269
     14 C8          1.0111    0.5629   -0.7924 C.ar      1 <0>         0.2147
     15 C9         -4.0219    0.6171   -0.0532 C.2       1 <0>        -0.0540
     16 C10        -6.3363    1.4362    0.1936 C.ar      1 <0>        -0.0529
     17 C11        -5.9432   -0.9318   -0.0791 C.ar      1 <0>        -0.0529
     18 C12        -3.1100   -0.2308   -0.5851 C.2       1 <0>        -0.0526
     19 C13        -7.7092    1.2001    0.2658 C.ar      1 <0>        -0.0403
     20 C14        -7.3160   -1.1680   -0.0066 C.ar      1 <0>        -0.0403
     21 C15        -0.8648   -0.6710   -1.5769 C.ar      1 <0>        -0.0481
     22 C16         0.4983   -0.4044   -1.6418 C.ar      1 <0>         0.0005
     23 C17         9.0292   -1.6379    0.5468 C.3       1 <0>         0.0759
     24 C18        -1.0529    0.9759    0.1286 C.ar      1 <0>         0.0385
     25 C19        10.5214   -1.4811    0.3581 C.3       1 <0>         0.1134
     26 C20       -10.1402   -1.5536    0.7578 C.3       1 <0>        -0.0024
     27 H1          4.7000    2.7847    0.5402 H         1 <0>         0.0594
     28 H2          4.5473    2.2641   -1.1640 H         1 <0>         0.0594
     29 H3          6.6204    1.1091   -1.0040 H         1 <0>         0.0583
     30 H4          6.7718    1.6332    0.6805 H         1 <0>         0.0583
     31 H5          2.3362    2.8042   -0.1549 H         1 <0>         0.0720
     32 H6          2.6193    1.5390    1.0881 H         1 <0>         0.0720
     33 H7          6.7432   -0.7423    1.4313 H         1 <0>         0.0583
     34 H8          6.5710   -1.2768   -0.2482 H         1 <0>         0.0583
     35 H9         -3.7087    1.5819    0.3369 H         1 <0>         0.0624
     36 H10        -5.9737    2.4583    0.2726 H         1 <0>         0.0624
     37 H11        -5.2943   -1.7951   -0.1932 H         1 <0>         0.0624
     38 H12        -3.4170   -1.1754   -1.0257 H         1 <0>         0.0624
     39 H13        -8.3866    2.0395    0.4007 H         1 <0>         0.0636
     40 H14        -7.6669   -2.1925   -0.0910 H         1 <0>         0.0636
     41 H15        -1.2891   -1.4250   -2.2350 H         1 <0>         0.0626
     42 H16         1.1340   -0.9403   -2.3379 H         1 <0>         0.0671
     43 H17         8.8168   -1.8860    1.5926 H         1 <0>         0.0585
     44 H18         8.6519   -2.4360   -0.1015 H         1 <0>         0.0585
     45 H19        -1.5932    1.5541    0.8708 H         1 <0>         0.0837
     46 H20       -10.1828    0.4813    0.2377 H         1 <0>         0.1457
     47 H21        10.7638   -1.1601   -0.6589 H         1 <0>         0.0638
     48 H22        11.0547   -2.4072    0.5878 H         1 <0>         0.0638
     49 H23       -11.2238   -1.4455    0.8710 H         1 <0>         0.0425
     50 H24        -9.9690   -2.3951    0.0793 H         1 <0>         0.0425
     51 H25        -9.7275   -1.7944    1.7432 H         1 <0>         0.0425
@<TRIPOS>BOND
     1    1   25 1
     2    2    7 1
     3    2    8 1
     4    3    9 1
     5    3   14 1
     6    4   10 1
     7    4   23 1
     8    5   13 1
     9    5   26 1
    10    5   46 1
    11    6   14 ar
    12    6   24 ar
    13    7    9 1
    14    7   27 1
    15    7   28 1
    16    8   10 1
    17    8   29 1
    18    8   30 1
    19    9   31 1
    20    9   32 1
    21   10   33 1
    22   10   34 1
    23   11   15 1
    24   11   16 ar
    25   11   17 ar
    26   12   18 1
    27   12   21 ar
    28   12   24 ar
    29   13   19 ar
    30   13   20 ar
    31   14   22 ar
    32   15   18 2
    33   15   35 1
    34   16   19 ar
    35   16   36 1
    36   17   20 ar
    37   17   37 1
    38   18   38 1
    39   19   39 1
    40   20   40 1
    41   21   22 ar
    42   21   41 1
    43   22   42 1
    44   23   25 1
    45   23   43 1
    46   23   44 1
    47   24   45 1
    48   25   47 1
    49   25   48 1
    50   26   49 1
    51   26   50 1
    52   26   51 1
