@<TRIPOS>MOLECULE
DB09257
   13    13     0     0     0
SMALL
USER_CHARGES

@<TRIPOS>ATOM
      1 Cl1        -0.8203   -2.9102    0.0000 Cl        1 <0>        -0.0783
      2 O1         -2.4563   -0.4100   -0.0001 O.3       1 <0>        -0.5051
      3 O2          1.2887    2.4714   -0.0001 O.2       1 <0>        -0.2678
      4 N1          1.6334    0.1870   -0.0000 N.am      1 <0>        -0.3275
      5 C1         -1.0982   -0.1674   -0.0000 C.2       1 <0>         0.1416
      6 C2         -0.1968   -1.3029   -0.0001 C.2       1 <0>         0.0984
      7 C3         -0.6280    1.0881    0.0001 C.2       1 <0>         0.0457
      8 C4          1.1256   -1.0889    0.0000 C.2       1 <0>         0.0268
      9 C5          0.8452    1.3260   -0.0000 C.2       1 <0>         0.2523
     10 H1         -1.2775    1.9559    0.0002 H         1 <0>         0.0709
     11 H2          1.8621   -1.8834    0.0001 H         1 <0>         0.0824
     12 H3          2.6440    0.2901   -0.0000 H         1 <0>         0.1684
     13 H4         -2.9218    0.4442   -0.0000 H         1 <0>         0.2922
@<TRIPOS>BOND
     1    1    6 1
     2    2    5 1
     3    2   13 1
     4    3    9 2
     5    4    8 1
     6    4    9 am
     7    4   12 1
     8    5    6 1
     9    5    7 2
    10    6    8 2
    11    7    9 1
    12    7   10 1
    13    8   11 1
