@<TRIPOS>MOLECULE
DB09040
   47    49     0     0     0
SMALL
USER_CHARGES

@<TRIPOS>ATOM
      1 F1          1.9663   -0.9053   -2.3041 F         1 <0>        -0.2050
      2 F2          5.9418   -2.2029   -0.0902 F         1 <0>        -0.2054
      3 O1          0.4889    0.4437    1.4293 O.3       1 <0>        -0.3805
      4 N1         -1.6297   -0.4402   -0.3430 N.3       1 <0>        -0.2959
      5 N2          1.6642    2.3647   -0.5028 N.pl3     1 <0>        -0.2489
      6 N3          2.8635    2.3767   -1.0752 N.2       1 <0>        -0.1583
      7 N4          2.5627    4.1290    0.3639 N.2       1 <0>        -0.2228
      8 C1         -0.2911   -1.0223   -0.3292 C.3       1 <0>         0.0424
      9 C2          0.7907    0.0381    0.0856 C.3       1 <0>         0.1281
     10 C3         -2.0018    0.0624    0.9907 C.3       1 <0>         0.0030
     11 C4         -2.6230   -1.3752   -0.8741 C.3       1 <0>         0.0030
     12 C5          0.7096    1.3008   -0.8273 C.3       1 <0>         0.0777
     13 C6         -3.5172    0.1804    1.2293 C.3       1 <0>        -0.0191
     14 C7         -3.9568   -0.6538   -1.1272 C.3       1 <0>        -0.0191
     15 C8         -0.3207   -2.2498    0.5925 C.3       1 <0>        -0.0464
     16 C9          2.1980   -0.5747    0.0349 C.ar      1 <0>         0.0225
     17 C10        -4.2672    0.3635   -0.0589 C.2       1 <0>        -0.0742
     18 C11         2.6824   -1.0056   -1.1754 C.ar      1 <0>         0.1321
     19 C12         2.9103   -0.6644    1.2055 C.ar      1 <0>        -0.0503
     20 C13        -5.1128    1.3825   -0.2676 C.2       1 <0>        -0.0994
     21 C14         3.9608   -1.5616   -1.2181 C.ar      1 <0>         0.0092
     22 C15         4.1888   -1.2205    1.1627 C.ar      1 <0>        -0.0259
     23 C16         1.4771    3.3912    0.3457 C.cat     1 <0>         0.1144
     24 C17         4.7141   -1.6691   -0.0490 C.ar      1 <0>         0.1261
     25 C18         3.3772    3.4735   -0.5142 C.2       1 <0>         0.1379
     26 H1         -0.0660   -1.3696   -1.3446 H         1 <0>         0.0492
     27 H2         -1.6336    1.0916    1.0776 H         1 <0>         0.0430
     28 H3         -1.6379   -0.5032    1.8492 H         1 <0>         0.0430
     29 H4         -2.8237   -2.2045   -0.1849 H         1 <0>         0.0430
     30 H5         -2.2897   -1.8128   -1.8232 H         1 <0>         0.0430
     31 H6         -0.2726    1.7808   -0.7392 H         1 <0>         0.0542
     32 H7          0.8481    1.0657   -1.8884 H         1 <0>         0.0542
     33 H8         -3.7178    0.9932    1.9377 H         1 <0>         0.0322
     34 H9         -3.8816   -0.7423    1.7007 H         1 <0>         0.0322
     35 H10        -4.7616   -1.3971   -1.1747 H         1 <0>         0.0322
     36 H11        -3.9098   -0.1532   -2.1030 H         1 <0>         0.0322
     37 H12        -0.5482   -2.0760    1.6447 H         1 <0>         0.0246
     38 H13        -0.9899   -3.0360    0.2293 H         1 <0>         0.0246
     39 H14         0.6665   -2.7284    0.5885 H         1 <0>         0.0246
     40 H15         0.5254   -0.3259    2.0200 H         1 <0>         0.2108
     41 H16         2.5561   -0.3174    2.1687 H         1 <0>         0.0623
     42 H17        -5.6264    1.4997   -1.2160 H         1 <0>         0.0534
     43 H18        -5.3107    2.1186    0.5042 H         1 <0>         0.0534
     44 H19         4.3700   -1.9104   -2.1616 H         1 <0>         0.0675
     45 H20         4.7777   -1.3016    2.0717 H         1 <0>         0.0646
     46 H21         0.5728    3.5628    0.9125 H         1 <0>         0.1044
     47 H22         4.3767    3.8051   -0.7528 H         1 <0>         0.1065
@<TRIPOS>BOND
     1    1   18 1
     2    2   24 1
     3    3    9 1
     4    3   40 1
     5    4    8 1
     6    4   10 1
     7    4   11 1
     8    5    6 1
     9    5   12 1
    10    5   23 2
    11    6   25 1
    12    7   23 1
    13    7   25 2
    14    8    9 1
    15    8   15 1
    16    8   26 1
    17    9   12 1
    18    9   16 1
    19   10   13 1
    20   10   27 1
    21   10   28 1
    22   11   14 1
    23   11   29 1
    24   11   30 1
    25   12   31 1
    26   12   32 1
    27   13   17 1
    28   13   33 1
    29   13   34 1
    30   14   17 1
    31   14   35 1
    32   14   36 1
    33   15   37 1
    34   15   38 1
    35   15   39 1
    36   16   18 ar
    37   16   19 ar
    38   17   20 2
    39   18   21 ar
    40   19   22 ar
    41   19   41 1
    42   20   42 1
    43   20   43 1
    44   21   24 ar
    45   21   44 1
    46   22   24 ar
    47   22   45 1
    48   23   46 1
    49   25   47 1
