@<TRIPOS>MOLECULE
DB09495
   45    46     0     0     0
SMALL
USER_CHARGES

@<TRIPOS>ATOM
      1 O1          0.2955   -2.8995   -0.0452 O.2       1 <0>        -0.2916
      2 O2          2.7656   -2.6226    1.0990 O.2       1 <0>        -0.2916
      3 O3          7.1791    1.6490   -0.2687 O.3       1 <0>        -0.4951
      4 C1         -5.1976    0.4917   -0.1855 C.3       1 <0>        -0.0127
      5 C2         -3.7809   -0.0961   -0.0759 C.ar      1 <0>        -0.0419
      6 C3         -6.2698   -0.5367   -0.6114 C.3       1 <0>        -0.0560
      7 C4         -5.2103    1.6244   -1.2345 C.3       1 <0>        -0.0560
      8 C5         -5.6309    1.0617    1.1826 C.3       1 <0>        -0.0560
      9 C6         -2.7568    0.7379    0.2975 C.ar      1 <0>        -0.0574
     10 C7         -3.6047   -1.4282   -0.3556 C.ar      1 <0>        -0.0574
     11 C8         -1.2533   -1.1447    0.1214 C.ar      1 <0>         0.0179
     12 C9         -1.4718    0.2047    0.3977 C.ar      1 <0>        -0.0510
     13 C10        -2.3196   -1.9613   -0.2552 C.ar      1 <0>        -0.0510
     14 C11         0.0866   -1.7007    0.2255 C.2       1 <0>         0.1706
     15 C12         1.2577   -0.7956    0.6406 C.3       1 <0>         0.0735
     16 C13         2.6237   -1.4503    0.7606 C.2       1 <0>         0.1706
     17 C14         3.8356   -0.6258    0.4874 C.ar      1 <0>         0.0181
     18 C15         3.7892    0.7249    0.7503 C.ar      1 <0>        -0.0478
     19 C16         4.9563   -1.2459   -0.0182 C.ar      1 <0>        -0.0478
     20 C17         4.9228    1.4961    0.4942 C.ar      1 <0>        -0.0193
     21 C18         6.0901   -0.4748   -0.2741 C.ar      1 <0>        -0.0193
     22 C19         6.0735    0.8962   -0.0179 C.ar      1 <0>         0.1201
     23 C20         8.3209    0.9718   -0.7918 C.3       1 <0>         0.0788
     24 H1         -6.3608   -1.3576    0.1096 H         1 <0>         0.0238
     25 H2         -6.0632   -0.9590   -1.6020 H         1 <0>         0.0238
     26 H3         -7.2583   -0.0644   -0.6734 H         1 <0>         0.0238
     27 H4         -4.8716    1.2608   -2.2121 H         1 <0>         0.0238
     28 H5         -4.5633    2.4624   -0.9532 H         1 <0>         0.0238
     29 H6         -6.2201    2.0319   -1.3629 H         1 <0>         0.0238
     30 H7         -4.9928    1.8887    1.5123 H         1 <0>         0.0238
     31 H8         -6.6561    1.4484    1.1417 H         1 <0>         0.0238
     32 H9         -5.5976    0.2895    1.9603 H         1 <0>         0.0238
     33 H10        -2.9037    1.7899    0.5169 H         1 <0>         0.0621
     34 H11        -4.3947   -2.1064   -0.6514 H         1 <0>         0.0621
     35 H12        -0.6736    0.8784    0.6929 H         1 <0>         0.0625
     36 H13        -2.1751   -3.0157   -0.4753 H         1 <0>         0.0625
     37 H14         1.3212   -0.0102   -0.1214 H         1 <0>         0.0426
     38 H15         1.0312   -0.3642    1.6220 H         1 <0>         0.0426
     39 H16         2.9133    1.2127    1.1653 H         1 <0>         0.0626
     40 H17         4.9799   -2.3113   -0.2269 H         1 <0>         0.0626
     41 H18         4.9054    2.5631    0.6992 H         1 <0>         0.0654
     42 H19         6.9487   -1.0043   -0.6730 H         1 <0>         0.0654
     43 H20         8.1157    0.5389   -1.7767 H         1 <0>         0.0660
     44 H21         8.7079    0.2302   -0.0847 H         1 <0>         0.0660
     45 H22         9.1065    1.7219   -0.9299 H         1 <0>         0.0660
@<TRIPOS>BOND
     1    1   14 2
     2    2   16 2
     3    3   22 1
     4    3   23 1
     5    4    5 1
     6    4    6 1
     7    4    7 1
     8    4    8 1
     9    5    9 ar
    10    5   10 ar
    11    6   24 1
    12    6   25 1
    13    6   26 1
    14    7   27 1
    15    7   28 1
    16    7   29 1
    17    8   30 1
    18    8   31 1
    19    8   32 1
    20    9   12 ar
    21    9   33 1
    22   10   13 ar
    23   10   34 1
    24   11   12 ar
    25   11   13 ar
    26   11   14 1
    27   12   35 1
    28   13   36 1
    29   14   15 1
    30   15   16 1
    31   15   37 1
    32   15   38 1
    33   16   17 1
    34   17   18 ar
    35   17   19 ar
    36   18   20 ar
    37   18   39 1
    38   19   21 ar
    39   19   40 1
    40   20   22 ar
    41   20   41 1
    42   21   22 ar
    43   21   42 1
    44   23   43 1
    45   23   44 1
    46   23   45 1
