@<TRIPOS>MOLECULE
DB09292
   59    60     0     0     0
SMALL
USER_CHARGES

@<TRIPOS>ATOM
      1 O1         -3.6393    0.1921   -1.5454 O.3       1 <0>        -0.4647
      2 O2         -3.1953    2.3941   -2.0718 O.2       1 <0>        -0.2505
      3 O3         -1.0894   -1.0300   -0.5255 O.2       1 <0>        -0.2758
      4 O4         -1.7049   -5.8176    0.9939 O.3       1 <0>        -0.4806
      5 O5         -2.0451   -4.5991    2.8802 O.2       1 <0>        -0.2510
      6 N1         -1.4708    0.2475    1.3778 N.am      1 <0>        -0.3121
      7 C1         -1.2707    1.5476    0.7762 C.3       1 <0>         0.0278
      8 C2         -2.5515    2.3976    0.8829 C.3       1 <0>        -0.0215
      9 C3         -3.7811    1.7719    0.2021 C.3       1 <0>         0.0553
     10 C4         -0.0918    2.2783    1.4449 C.3       1 <0>        -0.0092
     11 C5          1.2548    1.7638    0.9939 C.ar      1 <0>        -0.0456
     12 C6         -4.9991    2.6863    0.3271 C.3       1 <0>        -0.0522
     13 C7         -3.5051    1.5221   -1.2700 C.2       1 <0>         0.3100
     14 C8         -1.3619   -0.9389    0.6684 C.2       1 <0>         0.2138
     15 C9          1.8846    2.3347   -0.1122 C.ar      1 <0>        -0.0579
     16 C10         1.8684    0.7177    1.6831 C.ar      1 <0>        -0.0579
     17 C11        -1.6258   -2.1431    1.5544 C.3       1 <0>         0.0340
     18 C12         3.7415    0.8132    0.1601 C.ar      1 <0>        -0.0179
     19 C13         3.1279    1.8594   -0.5291 C.ar      1 <0>        -0.0538
     20 C14         3.1116    0.2425    1.2661 C.ar      1 <0>        -0.0538
     21 C15        -1.5117   -3.4613    0.7957 C.3       1 <0>         0.0530
     22 C16         5.0309    0.3200   -0.2722 C.ar      1 <0>        -0.0179
     23 C17        -3.3883   -0.1841   -2.9030 C.3       1 <0>         0.0897
     24 C18         6.2001    0.8798    0.2434 C.ar      1 <0>        -0.0540
     25 C19         5.1054   -0.7155   -1.2038 C.ar      1 <0>        -0.0540
     26 C20        -1.7835   -4.6512    1.6864 C.2       1 <0>         0.3052
     27 C21        -3.5774   -1.6795   -3.0431 C.3       1 <0>        -0.0306
     28 C22         7.4436    0.4043   -0.1730 C.ar      1 <0>        -0.0612
     29 C23         6.3489   -1.1910   -1.6201 C.ar      1 <0>        -0.0612
     30 C24         7.5180   -0.6311   -1.1045 C.ar      1 <0>        -0.0617
     31 H1         -1.0348    1.4138   -0.2864 H         1 <0>         0.0501
     32 H2         -2.7859    2.5692    1.9420 H         1 <0>         0.0291
     33 H3         -2.3579    3.3839    0.4403 H         1 <0>         0.0291
     34 H4         -4.0237    0.8201    0.6904 H         1 <0>         0.0411
     35 H5         -0.1351    3.3511    1.2135 H         1 <0>         0.0331
     36 H6         -0.1640    2.2114    2.5388 H         1 <0>         0.0331
     37 H7         -1.7025    0.2131    2.3664 H         1 <0>         0.1490
     38 H8         -5.8690    2.2429   -0.1696 H         1 <0>         0.0238
     39 H9         -5.2556    2.8509    1.3788 H         1 <0>         0.0238
     40 H10        -4.8177    3.6624   -0.1364 H         1 <0>         0.0238
     41 H11         1.4153    3.1483   -0.6590 H         1 <0>         0.0620
     42 H12         1.3887    0.2648    2.5465 H         1 <0>         0.0620
     43 H13        -0.9094   -2.1236    2.3849 H         1 <0>         0.0364
     44 H14        -2.6305   -2.0415    1.9832 H         1 <0>         0.0364
     45 H15         3.6047    2.3151   -1.3939 H         1 <0>         0.0624
     46 H16         3.5759   -0.5738    1.8145 H         1 <0>         0.0624
     47 H17        -2.2333   -3.4793   -0.0288 H         1 <0>         0.0382
     48 H18        -0.5030   -3.5672    0.3805 H         1 <0>         0.0382
     49 H19        -2.3612    0.0860   -3.1727 H         1 <0>         0.0694
     50 H20        -4.0879    0.3409   -3.5627 H         1 <0>         0.0694
     51 H21         6.1601    1.6874    0.9705 H         1 <0>         0.0624
     52 H22         4.2039   -1.1632   -1.6156 H         1 <0>         0.0624
     53 H23        -2.8958   -2.2208   -2.3793 H         1 <0>         0.0262
     54 H24        -4.5943   -1.9675   -2.7564 H         1 <0>         0.0262
     55 H25        -3.3962   -2.0015   -4.0724 H         1 <0>         0.0262
     56 H26         8.3539    0.8400    0.2284 H         1 <0>         0.0618
     57 H27         6.4072   -1.9972   -2.3455 H         1 <0>         0.0618
     58 H28         8.4861   -1.0014   -1.4286 H         1 <0>         0.0618
     59 H29        -1.8812   -6.5947    1.5661 H         1 <0>         0.2951
@<TRIPOS>BOND
     1    1   13 1
     2    1   23 1
     3    2   13 2
     4    3   14 2
     5    4   26 1
     6    4   59 1
     7    5   26 2
     8    6    7 1
     9    6   14 am
    10    6   37 1
    11    7    8 1
    12    7   10 1
    13    7   31 1
    14    8    9 1
    15    8   32 1
    16    8   33 1
    17    9   12 1
    18    9   13 1
    19    9   34 1
    20   10   11 1
    21   10   35 1
    22   10   36 1
    23   11   15 ar
    24   11   16 ar
    25   12   38 1
    26   12   39 1
    27   12   40 1
    28   14   17 1
    29   15   19 ar
    30   15   41 1
    31   16   20 ar
    32   16   42 1
    33   17   21 1
    34   17   43 1
    35   17   44 1
    36   18   19 ar
    37   18   20 ar
    38   18   22 1
    39   19   45 1
    40   20   46 1
    41   21   26 1
    42   21   47 1
    43   21   48 1
    44   22   24 ar
    45   22   25 ar
    46   23   27 1
    47   23   49 1
    48   23   50 1
    49   24   28 ar
    50   24   51 1
    51   25   29 ar
    52   25   52 1
    53   27   53 1
    54   27   54 1
    55   27   55 1
    56   28   30 ar
    57   28   56 1
    58   29   30 ar
    59   29   57 1
    60   30   58 1
