@<TRIPOS>MOLECULE
DB09488
   50    52     0     0     0
SMALL
USER_CHARGES

@<TRIPOS>ATOM
      1 O1          7.6284    0.8240    1.0497 O.co2     1 <0>        -0.5452
      2 O2          6.8574   -0.8998    2.3321 O.co2     1 <0>        -0.5452
      3 N1         -3.0257    0.5255    0.3873 N.4       1 <0>         0.2381
      4 N2          2.7192    0.9965    0.0857 N.ar      1 <0>        -0.2473
      5 C1         -3.3911    1.9207   -0.0699 C.3       1 <0>        -0.0314
      6 C2         -4.2923   -0.1302    0.9070 C.3       1 <0>        -0.0314
      7 C3         -4.8750    1.8194   -0.3499 C.3       1 <0>        -0.0077
      8 C4         -5.3649    0.9373    0.7808 C.3       1 <0>        -0.0077
      9 C5         -1.8752    0.4858    1.3409 C.3       1 <0>        -0.0121
     10 C6         -0.6314    1.1020    0.7731 C.2       1 <0>        -0.0297
     11 C7          0.3653    0.4892    0.0968 C.2       1 <0>         0.0085
     12 C8          0.3074   -0.9673   -0.1623 C.ar      1 <0>        -0.0160
     13 C9          1.4943    1.3313   -0.3780 C.ar      1 <0>         0.0721
     14 C10         0.8696   -1.8607    0.7496 C.ar      1 <0>        -0.0537
     15 C11        -0.3107   -1.4462   -1.3175 C.ar      1 <0>        -0.0537
     16 C12         1.2543    2.3855   -1.2446 C.ar      1 <0>        -0.0356
     17 C13         0.8140   -3.2329    0.5061 C.ar      1 <0>        -0.0583
     18 C14        -0.3663   -2.8185   -1.5610 C.ar      1 <0>        -0.0583
     19 C15         0.1962   -3.7119   -0.6492 C.ar      1 <0>        -0.0504
     20 C16         2.3416    3.1447   -1.6623 C.ar      1 <0>        -0.0577
     21 C17         3.7517    1.7571   -0.3420 C.ar      1 <0>         0.0646
     22 C18         3.6175    2.8310   -1.2070 C.ar      1 <0>        -0.0362
     23 C19         0.1371   -5.1789   -0.9101 C.3       1 <0>        -0.0397
     24 C20         5.0652    1.3898    0.1619 C.2       1 <0>        -0.0346
     25 C21         5.3160    0.3812    1.0270 C.2       1 <0>        -0.0374
     26 C22         6.7343    0.0619    1.5233 C.2       1 <0>         0.0646
     27 H1         -2.7487   -0.0018   -0.4523 H         1 <0>         0.2037
     28 H2         -2.7959    2.1701   -0.9528 H         1 <0>         0.0814
     29 H3         -3.1887    2.6180    0.7506 H         1 <0>         0.0814
     30 H4         -4.1453   -0.4624    1.9390 H         1 <0>         0.0814
     31 H5         -4.4878   -0.9894    0.2575 H         1 <0>         0.0814
     32 H6         -5.0514    1.3352   -1.3177 H         1 <0>         0.0319
     33 H7         -5.3639    2.7976   -0.3610 H         1 <0>         0.0319
     34 H8         -5.4285    1.5157    1.7105 H         1 <0>         0.0319
     35 H9         -6.3522    0.5099    0.5834 H         1 <0>         0.0319
     36 H10        -2.1762    1.0182    2.2510 H         1 <0>         0.0861
     37 H11        -1.7243   -0.5648    1.6099 H         1 <0>         0.0861
     38 H12        -0.5557    2.1744    0.9558 H         1 <0>         0.0632
     39 H13         1.3540   -1.5028    1.6548 H         1 <0>         0.0624
     40 H14        -0.7539   -0.7624   -2.0372 H         1 <0>         0.0624
     41 H15         0.2585    2.6242   -1.6044 H         1 <0>         0.0639
     42 H16         1.2542   -3.9191    1.2249 H         1 <0>         0.0620
     43 H17        -0.8520   -3.1795   -2.4636 H         1 <0>         0.0620
     44 H18         2.1952    3.9783   -2.3425 H         1 <0>         0.0619
     45 H19         4.4678    3.4220   -1.5319 H         1 <0>         0.0639
     46 H20        -0.7758   -5.6008   -0.4782 H         1 <0>         0.0278
     47 H21         0.1471   -5.3899   -1.9849 H         1 <0>         0.0278
     48 H22         1.0011   -5.6929   -0.4753 H         1 <0>         0.0278
     49 H23         5.8874    2.0005   -0.2029 H         1 <0>         0.0639
     50 H24         4.4982   -0.2349    1.3998 H         1 <0>         0.0636
@<TRIPOS>BOND
     1    1   26 2
     2    2   26 1
     3    3    5 1
     4    3    6 1
     5    3    9 1
     6    3   27 1
     7    4   13 ar
     8    4   21 ar
     9    5    7 1
    10    5   28 1
    11    5   29 1
    12    6    8 1
    13    6   30 1
    14    6   31 1
    15    7    8 1
    16    7   32 1
    17    7   33 1
    18    8   34 1
    19    8   35 1
    20    9   10 1
    21    9   36 1
    22    9   37 1
    23   10   11 2
    24   10   38 1
    25   11   12 1
    26   11   13 1
    27   12   14 ar
    28   12   15 ar
    29   13   16 ar
    30   14   17 ar
    31   14   39 1
    32   15   18 ar
    33   15   40 1
    34   16   20 ar
    35   16   41 1
    36   17   19 ar
    37   17   42 1
    38   18   19 ar
    39   18   43 1
    40   19   23 1
    41   20   22 ar
    42   20   44 1
    43   21   22 ar
    44   21   24 1
    45   22   45 1
    46   23   46 1
    47   23   47 1
    48   23   48 1
    49   24   25 2
    50   24   49 1
    51   25   26 1
    52   25   50 1
