@<TRIPOS>MOLECULE
DB09075
   67    70     0     0     0
SMALL
USER_CHARGES

@<TRIPOS>ATOM
      1 Cl1         7.7180    3.7592   -1.1073 Cl        1 <0>        -0.0820
      2 S1          1.6634   -2.2164    2.5196 S.3       1 <0>        -0.0661
      3 O1         -5.9580    0.1915    1.3413 O.2       1 <0>        -0.2753
      4 O2         -0.3828   -0.0998    3.0907 O.2       1 <0>        -0.2679
      5 O3         -0.7441    4.7401    1.5969 O.2       1 <0>        -0.2652
      6 O4          1.2608    5.7306   -0.1465 O.2       1 <0>        -0.2648
      7 N1         -0.9228    0.3760    0.9093 N.am      1 <0>        -0.3050
      8 N2         -0.7086    3.0902   -0.0726 N.am      1 <0>        -0.3030
      9 N3         -5.7330   -1.3443   -0.3891 N.am      1 <0>        -0.3074
     10 N4          4.0674   -4.2951   -0.0089 N.3       1 <0>        -0.3002
     11 N5          0.8993   -1.5570    0.1288 N.2       1 <0>        -0.2390
     12 N6          2.0554    3.5479    0.3178 N.am      1 <0>        -0.2626
     13 N7          4.1560    2.4771    0.1319 N.ar      1 <0>        -0.2387
     14 C1         -1.9140    1.3781    1.2382 C.3       1 <0>         0.0425
     15 C2         -1.9976    2.4862    0.1731 C.3       1 <0>         0.0419
     16 C3         -3.9154    0.2294    0.1553 C.3       1 <0>         0.0375
     17 C4         -3.2818    0.7236    1.4609 C.3       1 <0>        -0.0217
     18 C5         -2.6271    1.9897   -1.1330 C.3       1 <0>        -0.0321
     19 C6         -3.9883    1.3430   -0.8907 C.3       1 <0>        -0.0401
     20 C7         -5.2914   -0.3027    0.4279 C.2       1 <0>         0.2182
     21 C8         -0.2083   -0.3103    1.8891 C.2       1 <0>         0.2695
     22 C9         -0.2271    4.1463    0.6642 C.2       1 <0>         0.2996
     23 C10         0.7199   -1.2997    1.4080 C.2       1 <0>         0.1633
     24 C11        -4.9097   -1.8998   -1.4602 C.3       1 <0>         0.0028
     25 C12        -7.0477   -1.9534   -0.2333 C.3       1 <0>         0.0028
     26 C13         1.8463   -2.5496    0.0152 C.2       1 <0>         0.0549
     27 C14         2.3721   -3.0184    1.2004 C.2       1 <0>         0.0271
     28 C15         2.3058   -3.0710   -1.2996 C.3       1 <0>         0.0032
     29 C16         3.3914   -4.1042    1.2977 C.3       1 <0>         0.0318
     30 C17         3.0950   -4.3885   -1.1212 C.3       1 <0>         0.0044
     31 C18         1.1417    4.5764    0.2294 C.2       1 <0>         0.3042
     32 C19         4.9223   -5.4807    0.0323 C.3       1 <0>        -0.0124
     33 C20         3.4257    3.5955   -0.0278 C.ar      1 <0>         0.1253
     34 C21         3.9085    4.7964   -0.5040 C.ar      1 <0>        -0.0201
     35 C22         5.2553    4.8541   -0.8454 C.ar      1 <0>        -0.0387
     36 C23         5.4605    2.5714   -0.2102 C.ar      1 <0>         0.0480
     37 C24         6.0529    3.7247   -0.6987 C.ar      1 <0>         0.0592
     38 H1         -1.6044    1.8388    2.1854 H         1 <0>         0.0517
     39 H2         -2.6501    3.2752    0.5727 H         1 <0>         0.0516
     40 H3         -3.2647   -0.5730   -0.2077 H         1 <0>         0.0395
     41 H4         -3.1995   -0.1088    2.1718 H         1 <0>         0.0291
     42 H5         -3.9351    1.4681    1.9360 H         1 <0>         0.0291
     43 H6         -2.7437    2.8292   -1.8297 H         1 <0>         0.0284
     44 H7         -1.9640    1.2713   -1.6309 H         1 <0>         0.0284
     45 H8         -4.6918    2.1162   -0.5526 H         1 <0>         0.0273
     46 H9         -4.3895    0.9798   -1.8423 H         1 <0>         0.0273
     47 H10        -0.7799    0.1317   -0.0665 H         1 <0>         0.1494
     48 H11        -0.1176    2.6788   -0.7899 H         1 <0>         0.1495
     49 H12        -4.2545   -2.6607   -1.0256 H         1 <0>         0.0428
     50 H13        -4.3062   -1.1498   -1.9689 H         1 <0>         0.0428
     51 H14        -5.5513   -2.3714   -2.2113 H         1 <0>         0.0428
     52 H15        -7.5848   -1.5162    0.6122 H         1 <0>         0.0428
     53 H16        -6.9224   -3.0264   -0.0624 H         1 <0>         0.0428
     54 H17        -7.6257   -1.7872   -1.1469 H         1 <0>         0.0428
     55 H18         2.9499   -2.3181   -1.7697 H         1 <0>         0.0341
     56 H19         1.4504   -3.2399   -1.9627 H         1 <0>         0.0341
     57 H20         2.8917   -5.0291    1.6141 H         1 <0>         0.0481
     58 H21         4.1410   -3.8449    2.0546 H         1 <0>         0.0481
     59 H22         2.3964   -5.2176   -0.9431 H         1 <0>         0.0430
     60 H23         3.6147   -4.5997   -2.0639 H         1 <0>         0.0430
     61 H24         5.4804   -5.5847   -0.9049 H         1 <0>         0.0391
     62 H25         5.6658   -5.3911    0.8320 H         1 <0>         0.0391
     63 H26         4.3476   -6.3995    0.1952 H         1 <0>         0.0391
     64 H27         1.7378    2.6455    0.6638 H         1 <0>         0.1567
     65 H28         3.3485    5.7067   -0.6419 H         1 <0>         0.0652
     66 H29         5.6715    5.7840   -1.2241 H         1 <0>         0.0634
     67 H30         6.0292    1.6566   -0.0723 H         1 <0>         0.0845
@<TRIPOS>BOND
     1    1   37 1
     2    2   23 1
     3    2   27 1
     4    3   20 2
     5    4   21 2
     6    5   22 2
     7    6   31 2
     8    7   14 1
     9    7   21 am
    10    7   47 1
    11    8   15 1
    12    8   22 am
    13    8   48 1
    14    9   20 am
    15    9   24 1
    16    9   25 1
    17   10   29 1
    18   10   30 1
    19   10   32 1
    20   11   23 2
    21   11   26 1
    22   12   31 am
    23   12   33 1
    24   12   64 1
    25   13   33 ar
    26   13   36 ar
    27   14   15 1
    28   14   17 1
    29   14   38 1
    30   15   18 1
    31   15   39 1
    32   16   17 1
    33   16   19 1
    34   16   20 1
    35   16   40 1
    36   17   41 1
    37   17   42 1
    38   18   19 1
    39   18   43 1
    40   18   44 1
    41   19   45 1
    42   19   46 1
    43   21   23 1
    44   22   31 1
    45   24   49 1
    46   24   50 1
    47   24   51 1
    48   25   52 1
    49   25   53 1
    50   25   54 1
    51   26   27 2
    52   26   28 1
    53   27   29 1
    54   28   30 1
    55   28   55 1
    56   28   56 1
    57   29   57 1
    58   29   58 1
    59   30   59 1
    60   30   60 1
    61   32   61 1
    62   32   62 1
    63   32   63 1
    64   33   34 ar
    65   34   35 ar
    66   34   65 1
    67   35   37 ar
    68   35   66 1
    69   36   37 ar
    70   36   67 1
