@<TRIPOS>MOLECULE
DB09089
   57    58     0     0     0
SMALL
USER_CHARGES

@<TRIPOS>ATOM
      1 O1         -0.3129    0.8764   -0.4979 O.3       1 <0>        -0.4589
      2 O2          0.6453    2.1240   -2.1785 O.2       1 <0>        -0.2450
      3 O3          5.5375    1.7383   -0.5589 O.3       1 <0>        -0.4913
      4 O4          3.2761   -2.2378    0.8596 O.3       1 <0>        -0.4913
      5 O5          5.6130   -0.7729    0.6066 O.3       1 <0>        -0.4885
      6 N1         -3.9839    1.3233   -0.3702 N.3       1 <0>        -0.2961
      7 C1         -2.6977    0.7295    0.0475 C.3       1 <0>         0.0807
      8 C2         -2.4217    1.1876    1.5103 C.3       1 <0>        -0.0300
      9 C3         -1.6067    1.3414   -0.8716 C.3       1 <0>         0.1152
     10 C4         -2.6851   -0.8059   -0.0497 C.ar      1 <0>        -0.0240
     11 C5         -2.4111    2.7001    1.7248 C.3       1 <0>        -0.0632
     12 C6         -4.2384    1.0205   -1.7731 C.3       1 <0>        -0.0121
     13 C7         -5.0600    0.8232    0.4761 C.3       1 <0>        -0.0121
     14 C8         -2.2874   -1.4267   -1.2337 C.ar      1 <0>        -0.0567
     15 C9         -3.0706   -1.5774    1.0466 C.ar      1 <0>        -0.0567
     16 C10        -2.2755   -2.8187   -1.3218 C.ar      1 <0>        -0.0614
     17 C11        -3.0587   -2.9695    0.9589 C.ar      1 <0>        -0.0614
     18 C12        -2.6612   -3.5900   -0.2253 C.ar      1 <0>        -0.0617
     19 C13         0.7260    1.3491   -1.2381 C.2       1 <0>         0.3395
     20 C14         2.0126    0.7907   -0.7508 C.ar      1 <0>         0.0661
     21 C15         2.0468   -0.4749   -0.1653 C.ar      1 <0>        -0.0021
     22 C16         3.1876    1.5309   -0.8809 C.ar      1 <0>        -0.0021
     23 C17         4.3970    1.0054   -0.4256 C.ar      1 <0>         0.1660
     24 C18         3.2560   -1.0004    0.2901 C.ar      1 <0>         0.1660
     25 C19         4.4311   -0.2602    0.1598 C.ar      1 <0>         0.2035
     26 C20         5.8780    2.6092    0.5181 C.3       1 <0>         0.0790
     27 C21         2.0315   -2.9277    0.9545 C.3       1 <0>         0.0790
     28 C22         6.3782   -1.5380   -0.3215 C.3       1 <0>         0.0791
     29 H1         -1.4423    0.8034    1.8302 H         1 <0>         0.0285
     30 H2         -3.1210    0.7863    2.2479 H         1 <0>         0.0285
     31 H3         -1.7218    1.1051   -1.9322 H         1 <0>         0.0720
     32 H4         -1.6164    2.4372   -0.8129 H         1 <0>         0.0720
     33 H5         -1.5738    3.1811    1.2122 H         1 <0>         0.0230
     34 H6         -2.2884    2.9145    2.7925 H         1 <0>         0.0230
     35 H7         -3.3420    3.1756    1.4042 H         1 <0>         0.0230
     36 H8         -4.3227   -0.0425   -2.0132 H         1 <0>         0.0391
     37 H9         -5.2142    1.4487   -2.0426 H         1 <0>         0.0391
     38 H10        -3.5586    1.5151   -2.4709 H         1 <0>         0.0391
     39 H11        -5.9941    1.3137    0.1702 H         1 <0>         0.0391
     40 H12        -5.2533   -0.2496    0.3805 H         1 <0>         0.0391
     41 H13        -4.9691    1.0893    1.5314 H         1 <0>         0.0391
     42 H14        -1.9912   -0.8845   -2.1235 H         1 <0>         0.0621
     43 H15        -3.4087   -1.1581    1.9860 H         1 <0>         0.0621
     44 H16        -1.9692   -3.3027   -2.2445 H         1 <0>         0.0618
     45 H17        -3.3633   -3.5710    1.8105 H         1 <0>         0.0618
     46 H18        -2.6534   -4.6739   -0.2943 H         1 <0>         0.0618
     47 H19         1.1136   -1.0228   -0.0999 H         1 <0>         0.0663
     48 H20         3.1700    2.5190   -1.3345 H         1 <0>         0.0663
     49 H21         5.0982    3.3639    0.6618 H         1 <0>         0.0660
     50 H22         6.8132    3.1163    0.2660 H         1 <0>         0.0660
     51 H23         6.0259    2.0408    1.4416 H         1 <0>         0.0660
     52 H24         1.3211   -2.3957    1.5968 H         1 <0>         0.0660
     53 H25         1.6160   -3.1503   -0.0343 H         1 <0>         0.0660
     54 H26         2.2334   -3.8901    1.4363 H         1 <0>         0.0660
     55 H27         5.8150   -2.4152   -0.6551 H         1 <0>         0.0660
     56 H28         6.6638   -0.9257   -1.1827 H         1 <0>         0.0660
     57 H29         7.2874   -1.8775    0.1822 H         1 <0>         0.0660
@<TRIPOS>BOND
     1    1    9 1
     2    1   19 1
     3    2   19 2
     4    3   23 1
     5    3   26 1
     6    4   24 1
     7    4   27 1
     8    5   25 1
     9    5   28 1
    10    6    7 1
    11    6   12 1
    12    6   13 1
    13    7    8 1
    14    7    9 1
    15    7   10 1
    16    8   11 1
    17    8   29 1
    18    8   30 1
    19    9   31 1
    20    9   32 1
    21   10   14 ar
    22   10   15 ar
    23   11   33 1
    24   11   34 1
    25   11   35 1
    26   12   36 1
    27   12   37 1
    28   12   38 1
    29   13   39 1
    30   13   40 1
    31   13   41 1
    32   14   16 ar
    33   14   42 1
    34   15   17 ar
    35   15   43 1
    36   16   18 ar
    37   16   44 1
    38   17   18 ar
    39   17   45 1
    40   18   46 1
    41   19   20 1
    42   20   21 ar
    43   20   22 ar
    44   21   24 ar
    45   21   47 1
    46   22   23 ar
    47   22   48 1
    48   23   25 ar
    49   24   25 ar
    50   26   49 1
    51   26   50 1
    52   26   51 1
    53   27   52 1
    54   27   53 1
    55   27   54 1
    56   28   55 1
    57   28   56 1
    58   28   57 1
