@<TRIPOS>MOLECULE
DB09571
   26    26     0     0     0
SMALL
USER_CHARGES

@<TRIPOS>ATOM
      1 N1          2.6368    0.4028   -0.6004 N.3       1 <0>        -0.3162
      2 C1          1.3167    0.1674   -0.0081 C.3       1 <0>         0.0085
      3 C2          0.2244    0.4579   -1.0536 C.3       1 <0>        -0.0125
      4 C3         -1.1795    0.2824   -0.5262 C.ar      1 <0>        -0.0459
      5 C4          1.2691   -1.2723    0.5041 C.3       1 <0>        -0.0494
      6 C5         -1.7934   -0.9558   -0.6285 C.ar      1 <0>        -0.0585
      7 C6         -1.8281    1.3624    0.0509 C.ar      1 <0>        -0.0585
      8 C7          3.6841    0.1954    0.3856 C.3       1 <0>        -0.0155
      9 C8         -3.0902   -1.1182   -0.1412 C.ar      1 <0>        -0.0615
     10 C9         -3.1249    1.2000    0.5385 C.ar      1 <0>        -0.0615
     11 C10        -3.7558   -0.0404    0.4424 C.ar      1 <0>        -0.0617
     12 H1          1.1683    0.8473    0.8417 H         1 <0>         0.0461
     13 H2          0.3602   -0.1876   -1.9329 H         1 <0>         0.0328
     14 H3          0.3337    1.4842   -1.4311 H         1 <0>         0.0328
     15 H4          1.9894   -1.4637    1.3056 H         1 <0>         0.0245
     16 H5          1.4486   -1.9945   -0.3004 H         1 <0>         0.0245
     17 H6          0.2989   -1.5048    0.9526 H         1 <0>         0.0245
     18 H7          2.6800    1.3653   -0.9358 H         1 <0>         0.1219
     19 H8         -1.2876   -1.8009   -1.0866 H         1 <0>         0.0620
     20 H9         -1.3441    2.3314    0.1323 H         1 <0>         0.0620
     21 H10         4.6174    0.6191   -0.0019 H         1 <0>         0.0388
     22 H11         3.8905   -0.8647    0.5590 H         1 <0>         0.0388
     23 H12         3.4763    0.6983    1.3361 H         1 <0>         0.0388
     24 H13        -3.5821   -2.0835   -0.2173 H         1 <0>         0.0618
     25 H14        -3.6432    2.0390    0.9934 H         1 <0>         0.0618
     26 H15        -4.7657   -0.1667    0.8218 H         1 <0>         0.0618
@<TRIPOS>BOND
     1    1    2 1
     2    1    8 1
     3    1   18 1
     4    2    3 1
     5    2    5 1
     6    2   12 1
     7    3    4 1
     8    3   13 1
     9    3   14 1
    10    4    6 ar
    11    4    7 ar
    12    5   15 1
    13    5   16 1
    14    5   17 1
    15    6    9 ar
    16    6   19 1
    17    7   10 ar
    18    7   20 1
    19    8   21 1
    20    8   22 1
    21    8   23 1
    22    9   11 ar
    23    9   24 1
    24   10   11 ar
    25   10   25 1
    26   11   26 1
