@<TRIPOS>MOLECULE
DB09060
   28    29     0     0     0
SMALL
USER_CHARGES

@<TRIPOS>ATOM
      1 S1         -3.7877   -0.7231    0.1374 S.o2      1 <0>         0.2271
      2 O1         -2.5162    0.2324   -0.2726 O.3       1 <0>        -0.0962
      3 O2         -0.7866   -1.7854   -1.4970 O.2       1 <0>        -0.2502
      4 O3          3.6033    1.0218    0.0369 O.2       1 <0>        -0.2740
      5 O4         -5.0799    0.1143   -0.3987 O.3       1 <0>        -0.2297
      6 O5         -3.8681   -0.7739    1.5854 O.2       1 <0>        -0.1164
      7 O6         -3.7034   -1.9444   -0.6419 O.2       1 <0>        -0.1164
      8 N1          0.8296   -0.9294    0.0789 N.am      1 <0>        -0.2704
      9 N2         -1.3129   -0.2481    0.2225 N.am      1 <0>        -0.1323
     10 N3          3.6508   -1.2759   -0.0735 N.am      1 <0>        -0.3278
     11 C1         -0.5004    0.6176    1.0642 C.3       1 <0>         0.0727
     12 C2          0.5948   -0.3749    1.4113 C.3       1 <0>         0.0381
     13 C3          0.1686    1.7642    0.2620 C.3       1 <0>        -0.0282
     14 C4          1.6688   -0.1117   -0.7878 C.3       1 <0>         0.1036
     15 C5          1.0272    1.2898   -0.9493 C.3       1 <0>        -0.0239
     16 C6         -0.5036   -1.1409   -0.4985 C.2       1 <0>         0.3305
     17 C7          3.0575   -0.0457   -0.2311 C.2       1 <0>         0.2311
     18 H1         -1.0671    0.9773    1.9266 H         1 <0>         0.0542
     19 H2          1.4916    0.0596    1.8607 H         1 <0>         0.0484
     20 H3          0.2210   -1.1809    2.0550 H         1 <0>         0.0484
     21 H4          0.8186    2.3278    0.9431 H         1 <0>         0.0285
     22 H5         -0.5955    2.4628   -0.0990 H         1 <0>         0.0285
     23 H6          1.7270   -0.5895   -1.7744 H         1 <0>         0.0597
     24 H7          0.3429    1.2336   -1.8083 H         1 <0>         0.0288
     25 H8          1.7586    2.0604   -1.2175 H         1 <0>         0.0288
     26 H9          4.5941   -1.3589    0.2907 H         1 <0>         0.1450
     27 H10         3.1724   -2.1402   -0.3065 H         1 <0>         0.1450
     28 H11        -5.0055    0.4615   -1.3186 H         1 <0>         0.2470
@<TRIPOS>BOND
     1    1    2 1
     2    1    5 1
     3    1    6 2
     4    1    7 2
     5    2    9 1
     6    3   16 2
     7    4   17 2
     8    5   28 1
     9    8   12 1
    10    8   14 1
    11    8   16 am
    12    9   11 1
    13    9   16 am
    14   10   17 am
    15   10   26 1
    16   10   27 1
    17   11   12 1
    18   11   13 1
    19   11   18 1
    20   12   19 1
    21   12   20 1
    22   13   15 1
    23   13   21 1
    24   13   22 1
    25   14   15 1
    26   14   17 1
    27   14   23 1
    28   15   24 1
    29   15   25 1
