@<TRIPOS>MOLECULE
DB09117
   21    21     0     0     0
SMALL
USER_CHARGES

@<TRIPOS>ATOM
      1 O1         -0.7844    1.1201    0.1381 O.3       1 <0>        -0.3232
      2 O2         -0.5779   -1.2395    0.1381 O.3       1 <0>        -0.3232
      3 O3          1.3624    0.1193    0.1372 O.3       1 <0>        -0.3232
      4 C1         -1.3456   -0.1179   -0.3078 C.3       1 <0>         0.1623
      5 C2          0.5707    1.2244   -0.3080 C.3       1 <0>         0.1623
      6 C3          0.7749   -1.1065   -0.3081 C.3       1 <0>         0.1623
      7 C4         -2.7427   -0.2402    0.2740 C.3       1 <0>        -0.0134
      8 C5          1.1633    2.4951    0.2740 C.3       1 <0>        -0.0134
      9 C6          1.5794   -2.2549    0.2741 C.3       1 <0>        -0.0134
     10 H1         -1.4083   -0.1234   -1.4038 H         1 <0>         0.0909
     11 H2          0.5970    1.2817   -1.4039 H         1 <0>         0.0909
     12 H3          0.8107   -1.1584   -1.4042 H         1 <0>         0.0909
     13 H4         -2.7054   -0.2369    1.3693 H         1 <0>         0.0278
     14 H5         -3.3709    0.6011   -0.0347 H         1 <0>         0.0278
     15 H6         -3.2152   -1.1779   -0.0347 H         1 <0>         0.0278
     16 H7          1.1478    2.4609    1.3693 H         1 <0>         0.0278
     17 H8          2.2060    2.6187   -0.0350 H         1 <0>         0.0278
     18 H9          0.5874    3.3732   -0.0342 H         1 <0>         0.0278
     19 H10         2.6278   -2.1953   -0.0348 H         1 <0>         0.0278
     20 H11         1.5581   -2.2238    1.3694 H         1 <0>         0.0278
     21 H12         1.1651   -3.2198   -0.0343 H         1 <0>         0.0278
@<TRIPOS>BOND
     1    1    4 1
     2    1    5 1
     3    2    4 1
     4    2    6 1
     5    3    5 1
     6    3    6 1
     7    4    7 1
     8    4   10 1
     9    5    8 1
    10    5   11 1
    11    6    9 1
    12    6   12 1
    13    7   13 1
    14    7   14 1
    15    7   15 1
    16    8   16 1
    17    8   17 1
    18    8   18 1
    19    9   19 1
    20    9   20 1
    21    9   21 1
