@<TRIPOS>MOLECULE
DB09421
   48    50     0     0     0
SMALL
USER_CHARGES

@<TRIPOS>ATOM
      1 O1         -0.1594    1.1082    1.5068 O.2       1 <0>        -0.2735
      2 O2         -3.2921    0.8329    1.9923 O.2       1 <0>        -0.2740
      3 O3          1.8614    0.4172   -1.6752 O.2       1 <0>        -0.2738
      4 O4          4.9316    3.1734   -1.8152 O.2       1 <0>        -0.2758
      5 N1         -1.7556    0.6420   -0.1029 N.am      1 <0>        -0.2884
      6 N2          1.5057   -0.5531    0.4124 N.am      1 <0>        -0.3021
      7 N3          4.3329    0.9899   -1.2183 N.am      1 <0>        -0.3040
      8 N4         -4.0431    2.9541    1.5129 N.am      1 <0>        -0.3278
      9 N5         -0.9726   -4.3195    0.2752 N.pl3     1 <0>        -0.3481
     10 N6          0.9549   -5.2253   -0.3544 N.2       1 <0>        -0.2440
     11 C1         -2.4815    1.8999    0.0130 C.3       1 <0>         0.1020
     12 C2         -3.3628    1.9544   -1.2295 C.3       1 <0>        -0.0243
     13 C3         -2.3112   -0.1910   -1.1666 C.3       1 <0>         0.0156
     14 C4         -3.6208    0.4834   -1.5464 C.3       1 <0>        -0.0350
     15 C5          0.1216   -0.8914    0.2453 C.3       1 <0>         0.1050
     16 C6         -0.5985    0.3810    0.6143 C.2       1 <0>         0.2369
     17 C7          3.6705    0.3360   -0.1253 C.3       1 <0>         0.0998
     18 C8         -3.2952    1.8264    1.2698 C.2       1 <0>         0.2310
     19 C9         -0.3340   -2.0348    1.1430 C.3       1 <0>         0.0160
     20 C10         3.7549    1.3449    1.0043 C.3       1 <0>        -0.0177
     21 C11         2.2657    0.0766   -0.5666 C.2       1 <0>         0.2340
     22 C12         3.8307    2.6977    0.2972 C.3       1 <0>         0.0261
     23 C13         4.4519    2.3636   -1.0369 C.2       1 <0>         0.2137
     24 C14        -0.0144   -3.3821    0.5402 C.cat     1 <0>         0.0375
     25 C15         1.1666   -3.9642    0.1436 C.2       1 <0>         0.0485
     26 C16        -0.3436   -5.4088   -0.2606 C.cat     1 <0>         0.0935
     27 H1         -1.7851    2.7425    0.0807 H         1 <0>         0.0597
     28 H2         -4.2939    2.5154   -1.1109 H         1 <0>         0.0288
     29 H3         -2.8009    2.4047   -2.0574 H         1 <0>         0.0288
     30 H4         -2.4500   -1.2214   -0.8293 H         1 <0>         0.0465
     31 H5         -1.6132   -0.1756   -2.0108 H         1 <0>         0.0465
     32 H6         -3.8943    0.3132   -2.5914 H         1 <0>         0.0281
     33 H7         -4.4339    0.1053   -0.9152 H         1 <0>         0.0281
     34 H8         -0.0246   -1.1332   -0.8111 H         1 <0>         0.0598
     35 H9          4.1746   -0.6076    0.1035 H         1 <0>         0.0595
     36 H10         0.1374   -1.9724    2.1324 H         1 <0>         0.0351
     37 H11        -1.4167   -1.9759    1.3149 H         1 <0>         0.0351
     38 H12         4.6864    1.1867    1.5630 H         1 <0>         0.0292
     39 H13         2.9311    1.3087    1.7227 H         1 <0>         0.0292
     40 H14         1.9395   -0.7569    1.3084 H         1 <0>         0.1495
     41 H15         4.4474    3.4108    0.8494 H         1 <0>         0.0359
     42 H16         2.8335    3.1154    0.1265 H         1 <0>         0.0359
     43 H17         4.6473    0.5109   -2.0564 H         1 <0>         0.1494
     44 H18        -4.6403    3.0175    2.3308 H         1 <0>         0.1450
     45 H19        -4.0179    3.7660    0.9041 H         1 <0>         0.1450
     46 H20        -1.9659   -4.2276    0.4425 H         1 <0>         0.1665
     47 H21         2.1605   -3.5430    0.1911 H         1 <0>         0.0848
     48 H22        -0.8847   -6.2951   -0.5595 H         1 <0>         0.1027
@<TRIPOS>BOND
     1    1   16 2
     2    2   18 2
     3    3   21 2
     4    4   23 2
     5    5   11 1
     6    5   13 1
     7    5   16 am
     8    6   15 1
     9    6   21 am
    10    6   40 1
    11    7   17 1
    12    7   23 am
    13    7   43 1
    14    8   18 am
    15    8   44 1
    16    8   45 1
    17    9   24 1
    18    9   26 2
    19    9   46 1
    20   10   25 2
    21   10   26 1
    22   11   12 1
    23   11   18 1
    24   11   27 1
    25   12   14 1
    26   12   28 1
    27   12   29 1
    28   13   14 1
    29   13   30 1
    30   13   31 1
    31   14   32 1
    32   14   33 1
    33   15   16 1
    34   15   19 1
    35   15   34 1
    36   17   20 1
    37   17   21 1
    38   17   35 1
    39   19   24 1
    40   19   36 1
    41   19   37 1
    42   20   22 1
    43   20   38 1
    44   20   39 1
    45   22   23 1
    46   22   41 1
    47   22   42 1
    48   24   25 1
    49   25   47 1
    50   26   48 1
