@<TRIPOS>MOLECULE
DB09219
   40    43     0     0     0
SMALL
USER_CHARGES

@<TRIPOS>ATOM
      1 O1          0.4967   -0.9213    0.7638 O.3       1 <0>        -0.4652
      2 O2         -0.5114   -0.7509   -2.7159 O.2       1 <0>        -0.2703
      3 O3         -5.6793   -1.7553    0.2932 O.3       1 <0>        -0.5068
      4 O4          0.5846    5.2928    0.3610 O.3       1 <0>        -0.5068
      5 N1          1.5374   -1.2157   -1.8278 N.am      1 <0>        -0.2787
      6 C1         -0.2114   -0.3013   -0.3259 C.3       1 <0>         0.2357
      7 C2         -1.6973   -0.6967   -0.1579 C.ar      1 <0>         0.0095
      8 C3          0.0052    1.2182   -0.1394 C.ar      1 <0>         0.0095
      9 C4          0.2307   -0.7942   -1.7331 C.2       1 <0>         0.2705
     10 C5          1.8163   -1.1984    0.5605 C.ar      1 <0>         0.1441
     11 C6          2.3569   -1.3554   -0.7085 C.ar      1 <0>         0.0758
     12 C7         -2.6967    0.2124   -0.4922 C.ar      1 <0>        -0.0505
     13 C8         -0.3340    1.8228    1.0680 C.ar      1 <0>        -0.0505
     14 C9         -2.0263   -1.9593    0.3270 C.ar      1 <0>        -0.0505
     15 C10         0.5381    1.9746   -1.1799 C.ar      1 <0>        -0.0505
     16 C11         2.6145   -1.3893    1.6881 C.ar      1 <0>        -0.0180
     17 C12         3.7013   -1.6969   -0.8653 C.ar      1 <0>        -0.0369
     18 C13        -4.0368   -0.1440   -0.3404 C.ar      1 <0>        -0.0198
     19 C14        -0.1391    3.1937    1.2362 C.ar      1 <0>        -0.0198
     20 C15        -3.3663   -2.3159    0.4788 C.ar      1 <0>        -0.0198
     21 C16         0.7333    3.3456   -1.0117 C.ar      1 <0>        -0.0198
     22 C17        -4.3716   -1.4082    0.1450 C.ar      1 <0>         0.1169
     23 C18         0.3947    3.9552    0.1965 C.ar      1 <0>         0.1169
     24 C19         3.9618   -1.7184    1.5373 C.ar      1 <0>        -0.0582
     25 C20         4.5049   -1.8715    0.2615 C.ar      1 <0>        -0.0598
     26 H1          1.9165   -1.4485   -2.7410 H         1 <0>         0.1551
     27 H2         -2.4784    1.1941   -0.9008 H         1 <0>         0.0623
     28 H3         -0.7469    1.2454    1.8908 H         1 <0>         0.0623
     29 H4         -1.2616   -2.6879    0.5806 H         1 <0>         0.0623
     30 H5          0.8159    1.5508   -2.1384 H         1 <0>         0.0623
     31 H6          2.1956   -1.2829    2.6850 H         1 <0>         0.0655
     32 H7          4.1315   -1.8299   -1.8544 H         1 <0>         0.0637
     33 H8         -4.8156    0.5648   -0.6080 H         1 <0>         0.0654
     34 H9         -0.4062    3.6563    2.1826 H         1 <0>         0.0654
     35 H10        -3.6142   -3.3048    0.8551 H         1 <0>         0.0654
     36 H11         1.1489    3.9342   -1.8252 H         1 <0>         0.0654
     37 H12         4.5867   -1.8619    2.4140 H         1 <0>         0.0619
     38 H13         5.5525   -2.1336    0.1457 H         1 <0>         0.0618
     39 H14        -5.7268   -2.6629    0.6397 H         1 <0>         0.2921
     40 H15         0.2963    5.5443    1.2553 H         1 <0>         0.2921
@<TRIPOS>BOND
     1    1    6 1
     2    1   10 1
     3    2    9 2
     4    3   22 1
     5    3   39 1
     6    4   23 1
     7    4   40 1
     8    5    9 am
     9    5   11 1
    10    5   26 1
    11    6    7 1
    12    6    8 1
    13    6    9 1
    14    7   12 ar
    15    7   14 ar
    16    8   13 ar
    17    8   15 ar
    18   10   11 ar
    19   10   16 ar
    20   11   17 ar
    21   12   18 ar
    22   12   27 1
    23   13   19 ar
    24   13   28 1
    25   14   20 ar
    26   14   29 1
    27   15   21 ar
    28   15   30 1
    29   16   24 ar
    30   16   31 1
    31   17   25 ar
    32   17   32 1
    33   18   22 ar
    34   18   33 1
    35   19   23 ar
    36   19   34 1
    37   20   22 ar
    38   20   35 1
    39   21   23 ar
    40   21   36 1
    41   24   25 ar
    42   24   37 1
    43   25   38 1
