@<TRIPOS>MOLECULE
DB09195
   55    59     0     0     0
SMALL
USER_CHARGES

@<TRIPOS>ATOM
      1 F1         -8.0538    3.1244    0.0217 F         1 <0>        -0.1659
      2 F2         -6.2616    3.5209    1.1771 F         1 <0>        -0.1659
      3 F3         -6.2044    3.6527   -0.9926 F         1 <0>        -0.1659
      4 N1          3.8968   -0.5931    0.8111 N.pl3     1 <0>        -0.3142
      5 N2          5.2390   -2.2296    0.3071 N.2       1 <0>        -0.1341
      6 N3          3.9424   -2.7212    0.4851 N.2       1 <0>        -0.1343
      7 N4         -0.5799   -1.5282    0.0839 N.3       1 <0>        -0.2990
      8 N5         -3.2783   -0.6159   -0.1287 N.pl3     1 <0>        -0.3274
      9 C1          5.0913    1.4223    0.7434 C.3       1 <0>        -0.0132
     10 C2          6.0776    0.2238    0.4950 C.3       1 <0>         0.0236
     11 C3          5.1142    2.2434   -0.5538 C.3       1 <0>        -0.0479
     12 C4          6.6980    0.4819   -0.8738 C.3       1 <0>        -0.0430
     13 C5          3.7019    0.8121    1.0671 C.3       1 <0>         0.0295
     14 C6          5.6536    1.3021   -1.6207 C.3       1 <0>        -0.0521
     15 C7          5.1698   -0.9394    0.5102 C.cat     1 <0>         0.1369
     16 C8          3.1525   -1.7050    0.7888 C.cat     1 <0>         0.1347
     17 C9          1.7088   -1.7291    1.0665 C.3       1 <0>         0.0202
     18 C10         0.8537   -1.5349   -0.2048 C.3       1 <0>         0.0059
     19 C11        -1.3529   -1.7732   -1.1396 C.3       1 <0>         0.0147
     20 C12        -0.9792   -0.2467    0.6788 C.3       1 <0>         0.0147
     21 C13        -2.8534   -1.8246   -0.8414 C.3       1 <0>         0.0250
     22 C14        -2.4667   -0.2480    1.0383 C.3       1 <0>         0.0250
     23 C15        -4.6275   -0.2446   -0.1348 C.ar      1 <0>         0.0303
     24 C16        -4.9811    1.1019   -0.0488 C.ar      1 <0>        -0.0290
     25 C17        -5.6189   -1.2216   -0.2264 C.ar      1 <0>        -0.0406
     26 C18        -6.3261    1.4715   -0.0543 C.ar      1 <0>         0.0566
     27 C19        -6.9639   -0.8520   -0.2320 C.ar      1 <0>        -0.0595
     28 C20        -7.3174    0.4945   -0.1460 C.ar      1 <0>        -0.0500
     29 C21        -6.7046    2.9108    0.0381 C.3       1 <0>         0.4175
     30 H1          5.4225    2.0535    1.5764 H         1 <0>         0.0325
     31 H2          6.8305    0.1394    1.2847 H         1 <0>         0.0383
     32 H3          4.1403    2.6623   -0.8234 H         1 <0>         0.0269
     33 H4          5.8099    3.0834   -0.4334 H         1 <0>         0.0269
     34 H5          7.6095    1.0809   -0.7552 H         1 <0>         0.0272
     35 H6          6.9630   -0.4325   -1.4141 H         1 <0>         0.0272
     36 H7          2.8916    1.1850    0.4359 H         1 <0>         0.0495
     37 H8          3.4511    0.9235    2.1261 H         1 <0>         0.0495
     38 H9          4.8538    0.6555   -1.9999 H         1 <0>         0.0266
     39 H10         6.0838    1.8432   -2.4686 H         1 <0>         0.0266
     40 H11         1.4516   -2.6925    1.5254 H         1 <0>         0.0356
     41 H12         1.4788   -0.9654    1.8172 H         1 <0>         0.0356
     42 H13         1.1573   -0.6247   -0.7401 H         1 <0>         0.0431
     43 H14         1.0912   -2.3725   -0.8758 H         1 <0>         0.0431
     44 H15        -1.0638   -2.7332   -1.5844 H         1 <0>         0.0442
     45 H16        -1.1522   -0.9930   -1.8864 H         1 <0>         0.0442
     46 H17        -0.4247   -0.0455    1.6008 H         1 <0>         0.0442
     47 H18        -0.7729    0.5827   -0.0114 H         1 <0>         0.0442
     48 H19        -3.3857   -1.9199   -1.7960 H         1 <0>         0.0476
     49 H20        -3.0772   -2.7128   -0.2367 H         1 <0>         0.0476
     50 H21        -2.6585   -0.9622    1.8498 H         1 <0>         0.0476
     51 H22        -2.7263    0.7472    1.4170 H         1 <0>         0.0476
     52 H23        -4.2159    1.8727    0.0086 H         1 <0>         0.0641
     53 H24        -5.3810   -2.2801   -0.2803 H         1 <0>         0.0636
     54 H25        -7.7361   -1.6128   -0.2999 H         1 <0>         0.0618
     55 H26        -8.3704    0.7624   -0.1509 H         1 <0>         0.0623
@<TRIPOS>BOND
     1    1   29 1
     2    2   29 1
     3    3   29 1
     4    4   13 1
     5    4   15 1
     6    4   16 2
     7    5    6 2
     8    5   15 1
     9    6   16 1
    10    7   18 1
    11    7   19 1
    12    7   20 1
    13    8   21 1
    14    8   22 1
    15    8   23 1
    16    9   10 1
    17    9   11 1
    18    9   13 1
    19    9   30 1
    20   10   12 1
    21   10   15 1
    22   10   31 1
    23   11   14 1
    24   11   32 1
    25   11   33 1
    26   12   14 1
    27   12   34 1
    28   12   35 1
    29   13   36 1
    30   13   37 1
    31   14   38 1
    32   14   39 1
    33   16   17 1
    34   17   18 1
    35   17   40 1
    36   17   41 1
    37   18   42 1
    38   18   43 1
    39   19   21 1
    40   19   44 1
    41   19   45 1
    42   20   22 1
    43   20   46 1
    44   20   47 1
    45   21   48 1
    46   21   49 1
    47   22   50 1
    48   22   51 1
    49   23   24 ar
    50   23   25 ar
    51   24   26 ar
    52   24   52 1
    53   25   27 ar
    54   25   53 1
    55   26   28 ar
    56   26   29 1
    57   27   28 ar
    58   27   54 1
    59   28   55 1
