@<TRIPOS>MOLECULE
DB09009
   39    39     0     0     0
SMALL
USER_CHARGES

@<TRIPOS>ATOM
      1 S1         -3.7413    2.6856   -0.4084 S.3       1 <0>        -0.0881
      2 O1          0.3976    0.5713    2.1088 O.2       1 <0>        -0.2738
      3 O2         -3.0395   -1.1531   -0.8357 O.3       1 <0>        -0.4641
      4 O3         -4.9111    0.0799   -1.3606 O.2       1 <0>        -0.2443
      5 N1          2.1326   -1.2730    0.7225 N.3       1 <0>        -0.3059
      6 N2         -0.9277    0.0584    0.2392 N.am      1 <0>        -0.2829
      7 C1          0.7195   -1.5348    0.9855 C.3       1 <0>         0.0822
      8 C2          2.2919   -0.4349   -0.4562 C.3       1 <0>        -0.0037
      9 C3          0.0540   -0.1769    1.1980 C.2       1 <0>         0.2340
     10 C4          3.7714   -0.1650   -0.7182 C.3       1 <0>        -0.0433
     11 C5          0.5817   -2.4297    2.2116 C.3       1 <0>        -0.0411
     12 C6         -1.7405    1.1927    0.1218 C.2       1 <0>         0.0576
     13 C7         -1.3531    2.4940    0.5185 C.2       1 <0>        -0.0214
     14 C8         -3.0049    1.1398   -0.3972 C.2       1 <0>         0.1176
     15 C9          3.9646    0.7278   -1.9343 C.3       1 <0>        -0.0641
     16 C10        -2.3540    3.4113    0.2851 C.2       1 <0>        -0.0188
     17 C11        -0.0411    2.8497    1.1122 C.3       1 <0>        -0.0374
     18 C12        -3.7467    0.0275   -0.9013 C.2       1 <0>         0.3474
     19 C13        -3.6773   -2.3423   -1.3136 C.3       1 <0>         0.0820
     20 H1          0.2785   -2.0634    0.1316 H         1 <0>         0.0554
     21 H2          1.8062    0.5378   -0.3436 H         1 <0>         0.0424
     22 H3          1.8549   -0.9271   -1.3339 H         1 <0>         0.0424
     23 H4          2.6282   -2.1543    0.5905 H         1 <0>         0.1226
     24 H5          4.2264    0.3186    0.1549 H         1 <0>         0.0275
     25 H6          4.3047   -1.1096   -0.8803 H         1 <0>         0.0275
     26 H7         -0.4757   -2.6072    2.4369 H         1 <0>         0.0249
     27 H8          1.0616   -3.4008    2.0496 H         1 <0>         0.0249
     28 H9          1.0304   -1.9712    3.1005 H         1 <0>         0.0249
     29 H10        -1.2330   -0.7373   -0.3145 H         1 <0>         0.1549
     30 H11         3.5482    0.2621   -2.8332 H         1 <0>         0.0230
     31 H12         3.4768    1.6975   -1.7916 H         1 <0>         0.0230
     32 H13         5.0305    0.9068   -2.1072 H         1 <0>         0.0230
     33 H14        -2.3433    4.4736    0.4867 H         1 <0>         0.0697
     34 H15         0.8007    2.3326    0.6486 H         1 <0>         0.0278
     35 H16         0.1594    3.9131    0.9197 H         1 <0>         0.0278
     36 H17        -0.0507    2.7597    2.2017 H         1 <0>         0.0278
     37 H18        -3.9170   -2.2392   -2.3758 H         1 <0>         0.0661
     38 H19        -2.9818   -3.1760   -1.1872 H         1 <0>         0.0661
     39 H20        -4.5811   -2.5439   -0.7311 H         1 <0>         0.0661
@<TRIPOS>BOND
     1    1   14 1
     2    1   16 1
     3    2    9 2
     4    3   18 1
     5    3   19 1
     6    4   18 2
     7    5    7 1
     8    5    8 1
     9    5   23 1
    10    6    9 am
    11    6   12 1
    12    6   29 1
    13    7    9 1
    14    7   11 1
    15    7   20 1
    16    8   10 1
    17    8   21 1
    18    8   22 1
    19   10   15 1
    20   10   24 1
    21   10   25 1
    22   11   26 1
    23   11   27 1
    24   11   28 1
    25   12   13 1
    26   12   14 2
    27   13   16 2
    28   13   17 1
    29   14   18 1
    30   15   30 1
    31   15   31 1
    32   15   32 1
    33   16   33 1
    34   17   34 1
    35   17   35 1
    36   17   36 1
    37   19   37 1
    38   19   38 1
    39   19   39 1
