@<TRIPOS>MOLECULE
DB09340
   40    40     0     0     0
SMALL
USER_CHARGES

@<TRIPOS>ATOM
      1 I1         -0.1052   -1.3568    1.6493 I         1 <0>        -0.0416
      2 I2          3.5546    3.2743    0.0627 I         1 <0>        -0.0435
      3 I3         -2.3361    3.9060   -0.5467 I         1 <0>        -0.0418
      4 O1          3.3973    0.8909   -1.9045 O.3       1 <0>        -0.4804
      5 O2          5.2914    0.5086   -0.7163 O.2       1 <0>        -0.2507
      6 O3         -2.6031   -0.1440   -1.4395 O.2       1 <0>        -0.2755
      7 N1         -2.2247    0.8689    0.6479 N.am      1 <0>        -0.2838
      8 C1          3.2181   -0.5404    0.0127 C.3       1 <0>         0.0601
      9 C2          2.6549    0.3070    1.1686 C.3       1 <0>        -0.0127
     10 C3          4.0416   -1.7174    0.5674 C.3       1 <0>        -0.0427
     11 C4          1.4557    1.1345    0.7710 C.ar      1 <0>        -0.0185
     12 C5          0.1752    0.6101    0.8971 C.ar      1 <0>         0.0397
     13 C6          4.0903    0.3332   -0.8791 C.2       1 <0>         0.3081
     14 C7          4.6556   -2.5746   -0.5326 C.3       1 <0>        -0.0645
     15 C8          1.6520    2.4198    0.2802 C.ar      1 <0>         0.0186
     16 C9         -0.9258    1.3825    0.5271 C.ar      1 <0>         0.0602
     17 C10         0.5512    3.1923   -0.0898 C.ar      1 <0>        -0.0334
     18 C11        -0.7378    2.6735    0.0337 C.ar      1 <0>         0.0366
     19 C12        -4.3356   -0.2203    0.2359 C.3       1 <0>         0.0240
     20 C13        -2.9599    0.1515   -0.3039 C.2       1 <0>         0.2172
     21 C14        -5.1958   -1.0065   -0.7509 C.3       1 <0>        -0.0476
     22 C15        -6.5615   -1.3621   -0.1802 C.3       1 <0>        -0.0648
     23 H1          2.4136   -0.9586   -0.6057 H         1 <0>         0.0416
     24 H2          2.4211   -0.3256    2.0302 H         1 <0>         0.0322
     25 H3          3.4444    0.9306    1.6029 H         1 <0>         0.0322
     26 H4          4.8444   -1.3498    1.2186 H         1 <0>         0.0271
     27 H5          3.3968   -2.3534    1.1856 H         1 <0>         0.0271
     28 H6          3.8863   -2.9334   -1.2239 H         1 <0>         0.0230
     29 H7          5.1441   -3.4497   -0.0915 H         1 <0>         0.0230
     30 H8          5.4123   -2.0351   -1.1083 H         1 <0>         0.0230
     31 H9          0.6981    4.1993   -0.4749 H         1 <0>         0.0639
     32 H10        -2.6072    0.9157    1.5899 H         1 <0>         0.1549
     33 H11        -4.8499    0.7070    0.5164 H         1 <0>         0.0358
     34 H12        -4.1919   -0.8109    1.1491 H         1 <0>         0.0358
     35 H13        -5.3316   -0.4220   -1.6688 H         1 <0>         0.0267
     36 H14        -4.6764   -1.9281   -1.0401 H         1 <0>         0.0267
     37 H15         3.9713    1.4453   -2.4750 H         1 <0>         0.2951
     38 H16        -6.4608   -1.9795    0.7180 H         1 <0>         0.0230
     39 H17        -7.1458   -1.9233   -0.9160 H         1 <0>         0.0230
     40 H18        -7.1216   -0.4594    0.0835 H         1 <0>         0.0230
@<TRIPOS>BOND
     1    1   12 1
     2    2   15 1
     3    3   18 1
     4    4   13 1
     5    4   37 1
     6    5   13 2
     7    6   20 2
     8    7   16 1
     9    7   20 am
    10    7   32 1
    11    8    9 1
    12    8   10 1
    13    8   13 1
    14    8   23 1
    15    9   11 1
    16    9   24 1
    17    9   25 1
    18   10   14 1
    19   10   26 1
    20   10   27 1
    21   11   12 ar
    22   11   15 ar
    23   12   16 ar
    24   14   28 1
    25   14   29 1
    26   14   30 1
    27   15   17 ar
    28   16   18 ar
    29   17   18 ar
    30   17   31 1
    31   19   20 1
    32   19   21 1
    33   19   33 1
    34   19   34 1
    35   21   22 1
    36   21   35 1
    37   21   36 1
    38   22   38 1
    39   22   39 1
    40   22   40 1
