@<TRIPOS>MOLECULE
DB09313
   64    65     0     0     0
SMALL
USER_CHARGES

@<TRIPOS>ATOM
      1 I1          4.3484    2.9556   -1.9127 I         1 <0>        -0.0411
      2 I2          7.5998   -1.2531    1.0825 I         1 <0>        -0.0411
      3 I3          1.5149   -1.6999    0.8410 I         1 <0>        -0.0422
      4 I4         -4.0837    2.5652    1.1525 I         1 <0>        -0.0411
      5 I5         -1.4647   -1.4266   -2.6504 I         1 <0>        -0.0410
      6 I6         -7.0459   -2.5328   -0.4346 I         1 <0>        -0.0421
      7 O1          1.4929    0.6577   -1.9640 O.2       1 <0>        -0.2701
      8 O2         -1.1889    1.2947    1.4171 O.2       1 <0>        -0.2737
      9 O3          4.5464   -2.3413    2.7923 O.2       1 <0>        -0.2701
     10 O4          8.4916    2.9311   -0.0697 O.2       1 <0>        -0.2756
     11 O5         -6.4619   -0.0275    2.1757 O.2       1 <0>        -0.2701
     12 O6         -3.7960   -3.9642   -1.3778 O.3       1 <0>        -0.4771
     13 O7        -10.0839    0.4468   -0.3842 O.3       1 <0>        -0.3935
     14 O8         -4.7188   -3.0522   -3.2441 O.2       1 <0>        -0.2451
     15 N1          6.8453    1.3486   -0.6619 N.am      1 <0>        -0.2728
     16 N2          1.3078    1.8947   -0.0115 N.am      1 <0>        -0.3027
     17 N3         -1.9288    1.1818   -0.8097 N.am      1 <0>        -0.2825
     18 N4         -7.3939    1.0996    0.3763 N.am      1 <0>        -0.3091
     19 N5          4.6945   -3.5973    0.8488 N.am      1 <0>        -0.3144
     20 C1          5.6627    0.6720   -0.3291 C.ar      1 <0>         0.0638
     21 C2          3.2553    0.4952   -0.4257 C.ar      1 <0>         0.0654
     22 C3          4.4313    1.1681   -0.7569 C.ar      1 <0>         0.0489
     23 C4          4.5420   -1.1700    0.7608 C.ar      1 <0>         0.0654
     24 C5          5.7180   -0.4971    0.4298 C.ar      1 <0>         0.0489
     25 C6          3.3105   -0.6738    0.3332 C.ar      1 <0>         0.0397
     26 C7         -3.0718    0.3516   -0.7253 C.ar      1 <0>         0.0615
     27 C8          1.9630    1.0160   -0.8751 C.2       1 <0>         0.2466
     28 C9         -5.2802   -0.0855    0.1512 C.ar      1 <0>         0.0655
     29 C10         0.0160    2.4739   -0.3019 C.3       1 <0>         0.0887
     30 C11        -4.1537    0.7328    0.0681 C.ar      1 <0>         0.0487
     31 C12        -3.1164   -0.8478   -1.4359 C.ar      1 <0>         0.0506
     32 C13        -4.2429   -1.6662   -1.3530 C.ar      1 <0>         0.0875
     33 C14        -5.3248   -1.2849   -0.5594 C.ar      1 <0>         0.0415
     34 C15        -1.0938    1.5848    0.2290 C.2       1 <0>         0.2344
     35 C16         7.5885    0.9113   -1.8800 C.3       1 <0>         0.0083
     36 C17         4.6007   -2.3979    1.5556 C.2       1 <0>         0.2459
     37 C18         7.4148    2.3753    0.1611 C.2       1 <0>         0.2165
     38 C19        -6.4145    0.3140    0.9857 C.2       1 <0>         0.2462
     39 C20        -8.5602    1.5924    1.0731 C.3       1 <0>         0.0351
     40 C21         6.6290    2.8317    1.3692 C.3       1 <0>         0.0127
     41 C22        -4.2895   -2.9250   -2.0986 C.2       1 <0>         0.3389
     42 C23        -9.7194    0.6171    0.9793 C.3       1 <0>         0.0597
     43 C24         4.7377   -4.8923    1.4890 C.3       1 <0>         0.0004
     44 H1         -0.0431    3.4389    0.2115 H         1 <0>         0.0558
     45 H2         -0.0692    2.6535   -1.3780 H         1 <0>         0.0558
     46 H3          1.7447    2.1294    0.8754 H         1 <0>         0.1495
     47 H4         -1.4884    1.1662   -1.7279 H         1 <0>         0.1549
     48 H5          8.6042    0.6271   -1.5904 H         1 <0>         0.0433
     49 H6          7.0812    0.0752   -2.3692 H         1 <0>         0.0433
     50 H7          7.6525    1.7636   -2.5627 H         1 <0>         0.0433
     51 H8         -7.2902    1.3404   -0.6054 H         1 <0>         0.1491
     52 H9         -8.8240    2.5440    0.6000 H         1 <0>         0.0485
     53 H10        -8.3045    1.7789    2.1210 H         1 <0>         0.0485
     54 H11         5.7237    3.3570    1.0602 H         1 <0>         0.0323
     55 H12         7.2403    3.5199    1.9612 H         1 <0>         0.0323
     56 H13         6.3677    1.9849    2.0075 H         1 <0>         0.0323
     57 H14         4.7544   -3.5676   -0.1650 H         1 <0>         0.1487
     58 H15        -9.4503   -0.3603    1.3922 H         1 <0>         0.0573
     59 H16       -10.5858    1.0055    1.5234 H         1 <0>         0.0573
     60 H17         5.7851   -5.1686    1.6327 H         1 <0>         0.0426
     61 H18         4.2525   -5.6185    0.8328 H         1 <0>         0.0426
     62 H19         4.2290   -4.8623    2.4556 H         1 <0>         0.0426
     63 H20        -3.8282   -4.8061   -1.8804 H         1 <0>         0.2954
     64 H21       -10.8290   -0.1777   -0.4042 H         1 <0>         0.2095
@<TRIPOS>BOND
     1    1   22 1
     2    2   24 1
     3    3   25 1
     4    4   30 1
     5    5   31 1
     6    6   33 1
     7    7   27 2
     8    8   34 2
     9    9   36 2
    10   10   37 2
    11   11   38 2
    12   12   41 1
    13   12   63 1
    14   13   42 1
    15   13   64 1
    16   14   41 2
    17   15   20 1
    18   15   35 1
    19   15   37 am
    20   16   27 am
    21   16   29 1
    22   16   46 1
    23   17   26 1
    24   17   34 am
    25   17   47 1
    26   18   38 am
    27   18   39 1
    28   18   51 1
    29   19   36 am
    30   19   43 1
    31   19   57 1
    32   20   22 ar
    33   20   24 ar
    34   21   22 ar
    35   21   25 ar
    36   21   27 1
    37   23   24 ar
    38   23   25 ar
    39   23   36 1
    40   26   30 ar
    41   26   31 ar
    42   28   30 ar
    43   28   33 ar
    44   28   38 1
    45   29   34 1
    46   29   44 1
    47   29   45 1
    48   31   32 ar
    49   32   33 ar
    50   32   41 1
    51   35   48 1
    52   35   49 1
    53   35   50 1
    54   37   40 1
    55   39   42 1
    56   39   52 1
    57   39   53 1
    58   40   54 1
    59   40   55 1
    60   40   56 1
    61   42   58 1
    62   42   59 1
    63   43   60 1
    64   43   61 1
    65   43   62 1
