@<TRIPOS>MOLECULE
DB09415
   30    29     0     0     0
SMALL
USER_CHARGES

@<TRIPOS>ATOM
      1 O1          0.8749    2.3548    0.2794 O.3       1 <0>        -0.3865
      2 O2          1.2292   -0.0746    1.7733 O.3       1 <0>        -0.3865
      3 O3         -1.8903    2.1863   -0.0594 O.3       1 <0>        -0.3879
      4 O4          2.5981    0.0152   -1.6135 O.3       1 <0>        -0.3869
      5 O5          3.0206   -2.3460   -0.1437 O.3       1 <0>        -0.3924
      6 N1         -3.2524   -0.2529    0.4624 N.3       1 <0>        -0.3164
      7 C1          0.2841    1.1223   -0.1293 C.3       1 <0>         0.1105
      8 C2          1.1788   -0.0466    0.3480 C.3       1 <0>         0.1114
      9 C3         -1.1619    1.0541    0.4101 C.3       1 <0>         0.0959
     10 C4          2.6246    0.0393   -0.1879 C.3       1 <0>         0.1065
     11 C5         -1.8833   -0.2221   -0.0485 C.3       1 <0>         0.0242
     12 C6          3.5239   -1.0966    0.3007 C.3       1 <0>         0.0727
     13 C7         -3.9535   -1.4360   -0.0124 C.3       1 <0>        -0.0157
     14 H1          0.2496    1.1422   -1.2248 H         1 <0>         0.0646
     15 H2          0.7452   -0.9922    0.0087 H         1 <0>         0.0647
     16 H3         -1.1558    1.1231    1.5041 H         1 <0>         0.0633
     17 H4          3.0913    0.9795    0.1304 H         1 <0>         0.0643
     18 H5         -1.3566   -1.1086    0.3169 H         1 <0>         0.0450
     19 H6         -1.9017   -0.2545   -1.1451 H         1 <0>         0.0450
     20 H7          3.5970   -1.1166    1.3917 H         1 <0>         0.0584
     21 H8          4.5336   -0.9870   -0.1090 H         1 <0>         0.0584
     22 H9          0.2946    3.0724   -0.0275 H         1 <0>         0.2100
     23 H10         1.5848    0.7801    2.0717 H         1 <0>         0.2100
     24 H11        -3.7492    0.5822    0.1535 H         1 <0>         0.1217
     25 H12        -1.9071    2.1488   -1.0310 H         1 <0>         0.2099
     26 H13         2.2896    0.8848   -1.9188 H         1 <0>         0.2100
     27 H14        -3.4613   -2.3531    0.3273 H         1 <0>         0.0388
     28 H15        -4.0251   -1.4512   -1.1049 H         1 <0>         0.0388
     29 H16        -4.9712   -1.4421    0.3903 H         1 <0>         0.0388
     30 H17         2.9495   -2.3051   -1.1127 H         1 <0>         0.2095
@<TRIPOS>BOND
     1    1    7 1
     2    1   22 1
     3    2    8 1
     4    2   23 1
     5    3    9 1
     6    3   25 1
     7    4   10 1
     8    4   26 1
     9    5   12 1
    10    5   30 1
    11    6   11 1
    12    6   13 1
    13    6   24 1
    14    7    8 1
    15    7    9 1
    16    7   14 1
    17    8   10 1
    18    8   15 1
    19    9   11 1
    20    9   16 1
    21   10   12 1
    22   10   17 1
    23   11   18 1
    24   11   19 1
    25   12   20 1
    26   12   21 1
    27   13   27 1
    28   13   28 1
    29   13   29 1
