@<TRIPOS>MOLECULE
DB09038
   58    61     0     0     0
SMALL
USER_CHARGES

@<TRIPOS>ATOM
      1 Cl1         0.7499    4.4588   -1.0700 Cl        1 <0>        -0.0832
      2 O1         -4.3097    0.4041    0.2149 O.3       1 <0>        -0.3612
      3 O2         -3.2728   -3.5691   -0.0715 O.3       1 <0>        -0.3865
      4 O3         -2.0521   -1.5966   -1.8758 O.3       1 <0>        -0.3862
      5 O4         -5.9837   -2.8332    0.5727 O.3       1 <0>        -0.3865
      6 O5         -6.7554    1.2916    1.0954 O.3       1 <0>        -0.3924
      7 O6          7.0200   -2.6695   -0.0733 O.3       1 <0>        -0.3760
      8 O7          5.1028   -0.5392    0.9220 O.3       1 <0>        -0.4865
      9 C1         -3.8804   -2.3485   -0.4986 C.3       1 <0>         0.1121
     10 C2         -2.7979   -1.2844   -0.6993 C.3       1 <0>         0.1137
     11 C3         -4.8867   -1.9234    0.5705 C.3       1 <0>         0.1117
     12 C4         -3.4218    0.1094   -0.8682 C.3       1 <0>         0.1125
     13 C5         -5.4041   -0.5098    0.2976 C.3       1 <0>         0.1108
     14 C6         -2.3695    1.2003   -0.9101 C.ar      1 <0>        -0.0160
     15 C7         -6.3264   -0.0208    1.4096 C.3       1 <0>         0.0729
     16 C8         -1.5002    1.3703    0.1664 C.ar      1 <0>        -0.0512
     17 C9         -2.2733    2.0312   -2.0250 C.ar      1 <0>        -0.0546
     18 C10        -0.5324    2.3740    0.1276 C.ar      1 <0>        -0.0244
     19 C11         5.6087   -0.7912   -0.3844 C.3       1 <0>         0.1254
     20 C12         0.3810    2.5255    1.3012 C.3       1 <0>        -0.0010
     21 C13        -1.3054    3.0348   -2.0638 C.ar      1 <0>        -0.0428
     22 C14        -0.4348    3.2062   -0.9874 C.ar      1 <0>         0.0445
     23 C15         7.0440   -0.3352   -0.4792 C.3       1 <0>         0.0099
     24 C16         5.7319   -2.2874   -0.5857 C.3       1 <0>         0.0846
     25 C17         7.7859   -1.4830    0.1760 C.3       1 <0>         0.0512
     26 C18         1.6483    1.7030    1.1997 C.ar      1 <0>        -0.0428
     27 C19         3.9633    0.1994    1.0133 C.ar      1 <0>         0.1210
     28 C20         2.7670    2.2583    0.6045 C.ar      1 <0>        -0.0548
     29 C21         1.6581    0.4147    1.7042 C.ar      1 <0>        -0.0548
     30 C22         3.9341    1.5001    0.5105 C.ar      1 <0>        -0.0197
     31 C23         2.8253   -0.3432    1.6101 C.ar      1 <0>        -0.0197
     32 H1         -4.3923   -2.5720   -1.4426 H         1 <0>         0.0647
     33 H2         -2.1023   -1.3274    0.1464 H         1 <0>         0.0649
     34 H3         -4.4134   -1.9775    1.5587 H         1 <0>         0.0647
     35 H4         -3.9975    0.1450   -1.8035 H         1 <0>         0.0673
     36 H5         -5.9626   -0.4701   -0.6476 H         1 <0>         0.0646
     37 H6         -5.8068    0.0193    2.3727 H         1 <0>         0.0584
     38 H7         -7.2103   -0.6568    1.5120 H         1 <0>         0.0584
     39 H8         -2.6154   -3.8163   -0.7443 H         1 <0>         0.2100
     40 H9         -2.6621   -1.5784   -2.6329 H         1 <0>         0.2100
     41 H10        -1.5833    0.7320    1.0426 H         1 <0>         0.0624
     42 H11        -6.4161   -2.7849   -0.2969 H         1 <0>         0.2100
     43 H12        -2.9440    1.9098   -2.8714 H         1 <0>         0.0622
     44 H13         4.9743   -0.3460   -1.1601 H         1 <0>         0.0757
     45 H14         0.6298    3.5773    1.4902 H         1 <0>         0.0362
     46 H15        -0.1541    2.2380    2.2184 H         1 <0>         0.0362
     47 H16        -1.2423    3.6750   -2.9400 H         1 <0>         0.0632
     48 H17         7.2491    0.6177    0.0163 H         1 <0>         0.0324
     49 H18         7.3425   -0.2600   -1.5313 H         1 <0>         0.0324
     50 H19        -5.9618    1.8464    1.0035 H         1 <0>         0.2095
     51 H20         4.9606   -2.8627   -0.0656 H         1 <0>         0.0597
     52 H21         5.7195   -2.5468   -1.6495 H         1 <0>         0.0597
     53 H22         8.7982   -1.6078   -0.2188 H         1 <0>         0.0561
     54 H23         7.8497   -1.3479    1.2611 H         1 <0>         0.0561
     55 H24         2.7880    3.2789    0.2453 H         1 <0>         0.0622
     56 H25         0.7779   -0.0175    2.1709 H         1 <0>         0.0622
     57 H26         4.8186    1.9418    0.0594 H         1 <0>         0.0654
     58 H27         2.8422   -1.3562    2.0032 H         1 <0>         0.0654
@<TRIPOS>BOND
     1    1   22 1
     2    2   12 1
     3    2   13 1
     4    3    9 1
     5    3   39 1
     6    4   10 1
     7    4   40 1
     8    5   11 1
     9    5   42 1
    10    6   15 1
    11    6   50 1
    12    7   24 1
    13    7   25 1
    14    8   19 1
    15    8   27 1
    16    9   10 1
    17    9   11 1
    18    9   32 1
    19   10   12 1
    20   10   33 1
    21   11   13 1
    22   11   34 1
    23   12   14 1
    24   12   35 1
    25   13   15 1
    26   13   36 1
    27   14   16 ar
    28   14   17 ar
    29   15   37 1
    30   15   38 1
    31   16   18 ar
    32   16   41 1
    33   17   21 ar
    34   17   43 1
    35   18   20 1
    36   18   22 ar
    37   19   23 1
    38   19   24 1
    39   19   44 1
    40   20   26 1
    41   20   45 1
    42   20   46 1
    43   21   22 ar
    44   21   47 1
    45   23   25 1
    46   23   48 1
    47   23   49 1
    48   24   51 1
    49   24   52 1
    50   25   53 1
    51   25   54 1
    52   26   28 ar
    53   26   29 ar
    54   27   30 ar
    55   27   31 ar
    56   28   30 ar
    57   28   55 1
    58   29   31 ar
    59   29   56 1
    60   30   57 1
    61   31   58 1
