@<TRIPOS>MOLECULE
DB09074
   55    59     0     0     0
SMALL
USER_CHARGES

@<TRIPOS>ATOM
      1 F1         -1.1735   -4.2425    1.7995 F         1 <0>        -0.2047
      2 O1         -5.6032    1.5268   -1.6984 O.2       1 <0>        -0.2753
      3 O2         -1.5036   -3.9301   -1.5032 O.2       1 <0>        -0.2699
      4 O3          3.2403    3.7209    1.4468 O.2       1 <0>        -0.2658
      5 N1         -3.6441    0.4774   -1.0054 N.am      1 <0>        -0.2983
      6 N2         -2.3269   -1.9771   -0.5184 N.am      1 <0>        -0.2945
      7 N3          2.3560    0.3179    0.9717 N.2       1 <0>        -0.1750
      8 N4          2.3430    1.6113    1.3683 N.am      1 <0>        -0.2425
      9 C1         -4.4429    2.5655    0.0447 C.3       1 <0>         0.0358
     10 C2         -4.9443    2.3328    1.4278 C.3       1 <0>        -0.0412
     11 C3         -5.6536    3.2925    0.5179 C.3       1 <0>        -0.0412
     12 C4         -4.6182    1.4788   -0.9662 C.2       1 <0>         0.2187
     13 C5         -2.4170    0.4611   -0.1965 C.3       1 <0>         0.0305
     14 C6         -3.7620   -0.6168   -1.9733 C.3       1 <0>         0.0305
     15 C7         -2.2297   -0.8977    0.4736 C.3       1 <0>         0.0308
     16 C8         -3.5657   -1.9704   -1.2971 C.3       1 <0>         0.0308
     17 C9         -1.3918   -2.9952   -0.7116 C.2       1 <0>         0.2495
     18 C10        -0.1558   -2.9586    0.0801 C.ar      1 <0>         0.0723
     19 C11         0.9597   -2.2862   -0.4129 C.ar      1 <0>        -0.0433
     20 C12         2.1353   -2.2495    0.3370 C.ar      1 <0>        -0.0406
     21 C13        -0.1034   -3.5946    1.3177 C.ar      1 <0>         0.1355
     22 C14         3.3317   -1.5290   -0.1866 C.3       1 <0>         0.0171
     23 C15         2.1917   -2.8854    1.5772 C.ar      1 <0>        -0.0555
     24 C16         1.0722   -3.5581    2.0675 C.ar      1 <0>        -0.0254
     25 C17         3.3412   -0.0959    0.2380 C.2       1 <0>         0.0736
     26 C18         4.4557    0.7736   -0.1903 C.ar      1 <0>         0.0106
     27 C19         4.4227    2.1007    0.2294 C.ar      1 <0>         0.0496
     28 C20         5.5138    0.3194   -0.9816 C.ar      1 <0>        -0.0521
     29 C21         3.2981    2.5567    1.0619 C.2       1 <0>         0.2725
     30 C22         5.4430    2.9840   -0.1361 C.ar      1 <0>        -0.0487
     31 C23         6.5336    1.2003   -1.3470 C.ar      1 <0>        -0.0611
     32 C24         6.4986    2.5291   -0.9256 C.ar      1 <0>        -0.0610
     33 H1         -3.5497    3.1703   -0.0778 H         1 <0>         0.0394
     34 H2         -5.4374    1.3951    1.6539 H         1 <0>         0.0273
     35 H3         -4.3712    2.7451    2.2491 H         1 <0>         0.0273
     36 H4         -5.5571    4.3506    0.7308 H         1 <0>         0.0273
     37 H5         -6.6342    3.0037    0.1605 H         1 <0>         0.0273
     38 H6         -2.4195    1.2473    0.5609 H         1 <0>         0.0480
     39 H7         -1.5850    0.6644   -0.8814 H         1 <0>         0.0480
     40 H8         -2.9868   -0.4543   -2.7318 H         1 <0>         0.0480
     41 H9         -4.7322   -0.5880   -2.4789 H         1 <0>         0.0480
     42 H10        -1.2766   -0.9156    1.0060 H         1 <0>         0.0480
     43 H11        -3.0225   -1.0710    1.2113 H         1 <0>         0.0480
     44 H12        -4.3866   -2.1726   -0.5988 H         1 <0>         0.0480
     45 H13        -3.5618   -2.7674   -2.0471 H         1 <0>         0.0480
     46 H14         0.9118   -1.7889   -1.3790 H         1 <0>         0.0629
     47 H15         3.3465   -1.5839   -1.2822 H         1 <0>         0.0377
     48 H16         4.2450   -2.0203    0.1710 H         1 <0>         0.0377
     49 H17         3.1007   -2.8625    2.1722 H         1 <0>         0.0621
     50 H18         1.1153   -4.0524    3.0334 H         1 <0>         0.0646
     51 H19         5.5731   -0.7077   -1.3272 H         1 <0>         0.0624
     52 H20         5.4331    4.0226    0.1823 H         1 <0>         0.0625
     53 H21         1.5426    1.8646    1.9387 H         1 <0>         0.1921
     54 H22         7.3574    0.8490   -1.9621 H         1 <0>         0.0618
     55 H23         7.2943    3.2103   -1.2127 H         1 <0>         0.0618
@<TRIPOS>BOND
     1    1   21 1
     2    2   12 2
     3    3   17 2
     4    4   29 2
     5    5   12 am
     6    5   13 1
     7    5   14 1
     8    6   15 1
     9    6   16 1
    10    6   17 am
    11    7    8 1
    12    7   25 2
    13    8   29 am
    14    8   53 1
    15    9   10 1
    16    9   11 1
    17    9   12 1
    18    9   33 1
    19   10   11 1
    20   10   34 1
    21   10   35 1
    22   11   36 1
    23   11   37 1
    24   13   15 1
    25   13   38 1
    26   13   39 1
    27   14   16 1
    28   14   40 1
    29   14   41 1
    30   15   42 1
    31   15   43 1
    32   16   44 1
    33   16   45 1
    34   17   18 1
    35   18   19 ar
    36   18   21 ar
    37   19   20 ar
    38   19   46 1
    39   20   22 1
    40   20   23 ar
    41   21   24 ar
    42   22   25 1
    43   22   47 1
    44   22   48 1
    45   23   24 ar
    46   23   49 1
    47   24   50 1
    48   25   26 1
    49   26   27 ar
    50   26   28 ar
    51   27   29 1
    52   27   30 ar
    53   28   31 ar
    54   28   51 1
    55   30   32 ar
    56   30   52 1
    57   31   32 ar
    58   31   54 1
    59   32   55 1
