@<TRIPOS>MOLECULE
DB09351
   51    52     0     0     0
SMALL
USER_CHARGES

@<TRIPOS>ATOM
      1 O1          3.7313   -0.2932    0.2055 O.3       1 <0>        -0.3792
      2 O2         -2.2143   -2.2255    0.6006 O.3       1 <0>        -0.4894
      3 O3         -5.0160   -2.0031    0.5979 O.3       1 <0>        -0.3872
      4 N1         -3.1716    0.9257   -0.7161 N.3       1 <0>        -0.3112
      5 C1          3.9632    2.0650    0.4022 C.3       1 <0>        -0.0175
      6 C2          3.4080    3.2642   -0.3021 C.3       1 <0>        -0.0478
      7 C3          2.5213    2.4295    0.5748 C.3       1 <0>        -0.0478
      8 C4          4.3127    0.8558   -0.3952 C.3       1 <0>         0.0505
      9 C5          4.0389   -1.4748   -0.5233 C.3       1 <0>         0.0516
     10 C6          3.3919   -2.6825    0.1615 C.3       1 <0>        -0.0041
     11 C7          1.9102   -2.5614    0.2774 C.ar      1 <0>        -0.0450
     12 C8         -4.2128   -1.2927   -0.3489 C.3       1 <0>         0.1015
     13 C9         -3.9356    0.1039    0.2126 C.3       1 <0>         0.0254
     14 C10        -2.9705    2.2659   -0.1819 C.3       1 <0>         0.0021
     15 C11        -2.9436   -2.0988   -0.6161 C.3       1 <0>         0.1166
     16 C12         1.0894   -3.0446   -0.7417 C.ar      1 <0>        -0.0550
     17 C13         1.3451   -1.9658    1.4049 C.ar      1 <0>        -0.0550
     18 C14        -0.8538   -2.3373    0.4936 C.ar      1 <0>         0.1206
     19 C15        -2.2718    2.1738    1.1709 C.3       1 <0>        -0.0499
     20 C16        -2.1596    3.1096   -1.1615 C.3       1 <0>        -0.0499
     21 C17        -0.2968   -2.9321   -0.6332 C.ar      1 <0>        -0.0197
     22 C18        -0.0412   -1.8534    1.5134 C.ar      1 <0>        -0.0197
     23 H1          4.6191    2.2147    1.2503 H         1 <0>         0.0323
     24 H2          3.7001    4.2418    0.0619 H         1 <0>         0.0269
     25 H3          3.2426    3.2194   -1.3714 H         1 <0>         0.0269
     26 H4          1.7654    1.8226    0.0911 H         1 <0>         0.0269
     27 H5          2.2161    2.8473    1.5264 H         1 <0>         0.0269
     28 H6          5.4030    0.7459   -0.4251 H         1 <0>         0.0562
     29 H7          3.9499    0.9449   -1.4265 H         1 <0>         0.0562
     30 H8          3.6646   -1.3799   -1.5498 H         1 <0>         0.0563
     31 H9          5.1254   -1.6159   -0.5565 H         1 <0>         0.0563
     32 H10         3.6546   -3.5972   -0.3843 H         1 <0>         0.0335
     33 H11         3.8188   -2.7978    1.1665 H         1 <0>         0.0335
     34 H12        -4.7979   -1.2172   -1.2726 H         1 <0>         0.0640
     35 H13        -3.4239   -0.0306    1.1713 H         1 <0>         0.0450
     36 H14        -4.8978    0.5803    0.4429 H         1 <0>         0.0450
     37 H15        -3.9403    2.7616   -0.0460 H         1 <0>         0.0455
     38 H16        -3.6567    0.9790   -1.6112 H         1 <0>         0.1223
     39 H17        -3.2163   -3.1053   -0.9551 H         1 <0>         0.0723
     40 H18        -2.3662   -1.5933   -1.3999 H         1 <0>         0.0723
     41 H19         1.5181   -3.5147   -1.6229 H         1 <0>         0.0621
     42 H20         1.9722   -1.5846    2.2065 H         1 <0>         0.0621
     43 H21        -1.3991    1.5108    1.1387 H         1 <0>         0.0245
     44 H22        -1.9106    3.1628    1.4776 H         1 <0>         0.0245
     45 H23        -2.9421    1.8404    1.9696 H         1 <0>         0.0245
     46 H24        -2.6670    3.1839   -2.1297 H         1 <0>         0.0245
     47 H25        -1.1657    2.6805   -1.3318 H         1 <0>         0.0245
     48 H26        -2.0255    4.1274   -0.7790 H         1 <0>         0.0245
     49 H27        -0.9001   -3.3472   -1.4347 H         1 <0>         0.0654
     50 H28        -0.4776   -1.3873    2.3923 H         1 <0>         0.0654
     51 H29        -4.4877   -2.1203    1.4061 H         1 <0>         0.2100
@<TRIPOS>BOND
     1    1    8 1
     2    1    9 1
     3    2   15 1
     4    2   18 1
     5    3   12 1
     6    3   51 1
     7    4   13 1
     8    4   14 1
     9    4   38 1
    10    5    6 1
    11    5    7 1
    12    5    8 1
    13    5   23 1
    14    6    7 1
    15    6   24 1
    16    6   25 1
    17    7   26 1
    18    7   27 1
    19    8   28 1
    20    8   29 1
    21    9   10 1
    22    9   30 1
    23    9   31 1
    24   10   11 1
    25   10   32 1
    26   10   33 1
    27   11   16 ar
    28   11   17 ar
    29   12   13 1
    30   12   15 1
    31   12   34 1
    32   13   35 1
    33   13   36 1
    34   14   19 1
    35   14   20 1
    36   14   37 1
    37   15   39 1
    38   15   40 1
    39   16   21 ar
    40   16   41 1
    41   17   22 ar
    42   17   42 1
    43   18   21 ar
    44   18   22 ar
    45   19   43 1
    46   19   44 1
    47   19   45 1
    48   20   46 1
    49   20   47 1
    50   20   48 1
    51   21   49 1
    52   22   50 1
