@<TRIPOS>MOLECULE
DB09213
   33    33     0     0     0
SMALL
USER_CHARGES

@<TRIPOS>ATOM
      1 O1          5.0241   -1.2301    0.9911 O.3       1 <0>        -0.4802
      2 O2          2.9012   -2.0218    0.9450 O.2       1 <0>        -0.2503
      3 C1         -3.2299   -0.1130    0.3976 C.3       1 <0>        -0.0427
      4 C2         -2.4030    0.8415   -0.4864 C.3       1 <0>        -0.0253
      5 C3         -0.9129    0.7001   -0.2828 C.ar      1 <0>        -0.0471
      6 C4          1.8197    0.4396    0.0912 C.ar      1 <0>        -0.0339
      7 C5          3.2905    0.2997    0.2925 C.3       1 <0>         0.0784
      8 C6         -2.8906   -1.5828    0.1363 C.3       1 <0>        -0.0624
      9 C7         -4.7232    0.1201    0.1544 C.3       1 <0>        -0.0624
     10 C8         -0.2833    1.4746    0.6777 C.ar      1 <0>        -0.0583
     11 C9         -0.2049   -0.2019   -1.0603 C.ar      1 <0>        -0.0583
     12 C10         1.0927    1.3433    0.8660 C.ar      1 <0>        -0.0575
     13 C11         1.1708   -0.3331   -0.8718 C.ar      1 <0>        -0.0575
     14 C12         4.1246    0.6625   -0.9533 C.3       1 <0>        -0.0482
     15 C13         3.6893   -1.1017    0.7686 C.2       1 <0>         0.3119
     16 H1         -3.0196    0.1019    1.4533 H         1 <0>         0.0299
     17 H2         -2.6954    1.8805   -0.2832 H         1 <0>         0.0316
     18 H3         -2.6401    0.6758   -1.5462 H         1 <0>         0.0316
     19 H4          3.5990    0.9766    1.1013 H         1 <0>         0.0459
     20 H5         -3.5729   -2.2386    0.6889 H         1 <0>         0.0232
     21 H6         -2.9790   -1.8315   -0.9267 H         1 <0>         0.0232
     22 H7         -1.8791   -1.8306    0.4713 H         1 <0>         0.0232
     23 H8         -4.9934    1.1601    0.3661 H         1 <0>         0.0232
     24 H9         -4.9962   -0.0973   -0.8839 H         1 <0>         0.0232
     25 H10        -5.3285   -0.5198    0.8052 H         1 <0>         0.0232
     26 H11        -0.8416    2.1792    1.2872 H         1 <0>         0.0620
     27 H12        -0.6982   -0.8046   -1.8173 H         1 <0>         0.0620
     28 H13         1.5820    1.9529    1.6210 H         1 <0>         0.0621
     29 H14         1.7196   -1.0413   -1.4869 H         1 <0>         0.0621
     30 H15         3.9857   -0.0678   -1.7582 H         1 <0>         0.0241
     31 H16         3.8405    1.6485   -1.3369 H         1 <0>         0.0241
     32 H17         5.1941    0.6910   -0.7187 H         1 <0>         0.0241
     33 H18         5.2580   -2.1318    1.2982 H         1 <0>         0.2951
@<TRIPOS>BOND
     1    1   15 1
     2    1   33 1
     3    2   15 2
     4    3    4 1
     5    3    8 1
     6    3    9 1
     7    3   16 1
     8    4    5 1
     9    4   17 1
    10    4   18 1
    11    5   10 ar
    12    5   11 ar
    13    6    7 1
    14    6   12 ar
    15    6   13 ar
    16    7   14 1
    17    7   15 1
    18    7   19 1
    19    8   20 1
    20    8   21 1
    21    8   22 1
    22    9   23 1
    23    9   24 1
    24    9   25 1
    25   10   12 ar
    26   10   26 1
    27   11   13 ar
    28   11   27 1
    29   12   28 1
    30   13   29 1
    31   14   30 1
    32   14   31 1
    33   14   32 1
