@<TRIPOS>MOLECULE
DB09330
   70    73     0     0     0
SMALL
USER_CHARGES

@<TRIPOS>ATOM
      1 O1          2.0548    4.0193    0.5434 O.3       1 <0>        -0.4932
      2 O2         -1.6904   -1.0618    2.0679 O.2       1 <0>        -0.2705
      3 N1          3.3801   -0.4959    1.4778 N.pl3     1 <0>        -0.3302
      4 N2         -5.7395   -0.9227   -0.7400 N.pl3     1 <0>        -0.3490
      5 N3          5.3503   -1.3422   -1.5541 N.3       1 <0>        -0.3069
      6 N4         -0.6510    3.3681    0.9389 N.pl3     1 <0>        -0.2806
      7 N5          0.6522   -1.1812    1.8836 N.am      1 <0>        -0.2804
      8 N6         -2.4614    2.0587    0.2225 N.ar      1 <0>        -0.2142
      9 N7         -2.6992    4.4371    0.5289 N.ar      1 <0>        -0.2226
     10 C1          3.7962   -1.2834    0.3359 C.3       1 <0>         0.0247
     11 C2          2.3554    0.4677    1.3451 C.ar      1 <0>         0.0546
     12 C3          4.8998   -0.5508   -0.4161 C.3       1 <0>         0.0140
     13 C4         -3.5929   -0.4050   -1.0577 C.2       1 <0>         0.0090
     14 C5         -4.5411   -1.4203   -1.1999 C.2       1 <0>         0.0495
     15 C6         -4.2640    0.7176   -0.4969 C.2       1 <0>         0.0257
     16 C7          1.0182    0.1251    1.5460 C.ar      1 <0>         0.0569
     17 C8          2.6968    1.7777    1.0084 C.ar      1 <0>         0.0048
     18 C9         -5.5820    0.3686   -0.3132 C.2       1 <0>         0.0146
     19 C10         0.3637    2.4024    1.0736 C.ar      1 <0>         0.0776
     20 C11         4.0197   -0.7117    2.7590 C.3       1 <0>         0.0008
     21 C12         1.7009    2.7451    0.8726 C.ar      1 <0>         0.1431
     22 C13         0.0225    1.0925    1.4104 C.ar      1 <0>        -0.0138
     23 C14        -3.7573    2.0144   -0.1499 C.ar      1 <0>         0.0780
     24 C15        -2.2656   -0.6555   -1.4590 C.2       1 <0>        -0.0519
     25 C16        -4.2271   -2.6786   -1.7256 C.2       1 <0>        -0.0376
     26 C17        -6.9925   -1.6459   -0.7059 C.3       1 <0>         0.0119
     27 C18         4.4160   -1.2143   -2.6741 C.3       1 <0>        -0.0130
     28 C19         6.6948   -0.9347   -1.9663 C.3       1 <0>        -0.0130
     29 C20        -2.0040    3.2839    0.5439 C.ar      1 <0>         0.2201
     30 C21        -1.9370   -1.9095   -1.9865 C.2       1 <0>        -0.0611
     31 C22        -2.9043   -2.9041   -2.1168 C.2       1 <0>        -0.0598
     32 C23        -4.5769    3.1232   -0.2066 C.ar      1 <0>        -0.0173
     33 C24        -3.9880    4.3199    0.1472 C.ar      1 <0>         0.0332
     34 C25        -0.6344   -1.6814    2.1165 C.2       1 <0>         0.2406
     35 C26         2.1111    4.3370   -0.8458 C.3       1 <0>         0.0789
     36 C27        -0.6050   -3.1347    2.4525 C.2       1 <0>        -0.0066
     37 C28        -1.7377   -3.7963    2.7092 C.2       1 <0>        -0.0938
     38 H1          4.1535   -2.2674    0.6664 H         1 <0>         0.0476
     39 H2          2.9302   -1.4790   -0.3070 H         1 <0>         0.0476
     40 H3          4.5854    0.4513   -0.7322 H         1 <0>         0.0442
     41 H4          5.7303   -0.3996    0.2874 H         1 <0>         0.0442
     42 H5          3.7375    2.0561    0.8608 H         1 <0>         0.0674
     43 H6         -6.4234    0.9168    0.0915 H         1 <0>         0.0816
     44 H7          3.3058   -1.1176    3.4834 H         1 <0>         0.0428
     45 H8          4.4181    0.2286    3.1551 H         1 <0>         0.0428
     46 H9          4.8555   -1.4154    2.6835 H         1 <0>         0.0428
     47 H10        -1.0101    0.8846    1.6285 H         1 <0>         0.0656
     48 H11        -1.4944    0.1041   -1.3732 H         1 <0>         0.0624
     49 H12        -4.9754   -3.4573   -1.8294 H         1 <0>         0.0638
     50 H13        -7.2509   -1.9363   -1.7274 H         1 <0>         0.0456
     51 H14        -6.8645   -2.5272   -0.0723 H         1 <0>         0.0456
     52 H15        -7.7763   -1.0050   -0.2943 H         1 <0>         0.0456
     53 H16        -0.3313    4.3275    1.0326 H         1 <0>         0.1551
     54 H17         1.4295   -1.8332    1.9631 H         1 <0>         0.1552
     55 H18         7.4122   -1.0897   -1.1526 H         1 <0>         0.0391
     56 H19         6.7328    0.1189   -2.2661 H         1 <0>         0.0391
     57 H20         7.0419   -1.5459   -2.8069 H         1 <0>         0.0391
     58 H21         3.4228   -1.5976   -2.4214 H         1 <0>         0.0391
     59 H22         4.7607   -1.8127   -3.5255 H         1 <0>         0.0391
     60 H23         4.3114   -0.1764   -3.0113 H         1 <0>         0.0391
     61 H24        -0.9148   -2.1082   -2.2977 H         1 <0>         0.0618
     62 H25        -2.6269   -3.8710   -2.5289 H         1 <0>         0.0618
     63 H26        -5.6137    3.0981   -0.5179 H         1 <0>         0.0654
     64 H27        -4.5520    5.2464    0.1299 H         1 <0>         0.0831
     65 H28         2.8695    3.7271   -1.3469 H         1 <0>         0.0660
     66 H29         1.1357    4.1859   -1.3187 H         1 <0>         0.0660
     67 H30         2.3880    5.3901   -0.9452 H         1 <0>         0.0660
     68 H31         0.3481   -3.6511    2.4870 H         1 <0>         0.0663
     69 H32        -1.7049   -4.8531    2.9525 H         1 <0>         0.0536
     70 H33        -2.7115   -3.3199    2.6848 H         1 <0>         0.0536
@<TRIPOS>BOND
     1    1   21 1
     2    1   35 1
     3    2   34 2
     4    3   10 1
     5    3   11 1
     6    3   20 1
     7    4   14 1
     8    4   18 2
     9    4   26 1
    10    5   12 1
    11    5   27 1
    12    5   28 1
    13    6   19 1
    14    6   29 1
    15    6   53 1
    16    7   16 1
    17    7   34 am
    18    7   54 1
    19    8   23 ar
    20    8   29 ar
    21    9   29 ar
    22    9   33 ar
    23   10   12 1
    24   10   38 1
    25   10   39 1
    26   11   16 ar
    27   11   17 ar
    28   12   40 1
    29   12   41 1
    30   13   14 1
    31   13   15 2
    32   13   24 2
    33   14   25 2
    34   15   18 1
    35   15   23 1
    36   16   22 ar
    37   17   21 ar
    38   17   42 1
    39   18   43 1
    40   19   21 ar
    41   19   22 ar
    42   20   44 1
    43   20   45 1
    44   20   46 1
    45   22   47 1
    46   23   32 ar
    47   24   30 1
    48   24   48 1
    49   25   31 1
    50   25   49 1
    51   26   50 1
    52   26   51 1
    53   26   52 1
    54   27   58 1
    55   27   59 1
    56   27   60 1
    57   28   55 1
    58   28   56 1
    59   28   57 1
    60   30   31 2
    61   30   61 1
    62   31   62 1
    63   32   33 ar
    64   32   63 1
    65   33   64 1
    66   34   36 1
    67   35   65 1
    68   35   66 1
    69   35   67 1
    70   36   37 2
    71   36   68 1
    72   37   69 1
    73   37   70 1
