@<TRIPOS>MOLECULE
DB09355
   31    32     0     0     0
SMALL
USER_CHARGES

@<TRIPOS>ATOM
      1 S1         -0.8119    2.1109   -1.1044 S.o2      1 <0>         0.0746
      2 O1         -0.7694    3.2525   -0.2111 O.2       1 <0>        -0.1499
      3 O2         -1.0922    2.2896   -2.5159 O.2       1 <0>        -0.1499
      4 O3          1.0549    1.6494    1.3338 O.2       1 <0>        -0.2686
      5 N1          0.6302    1.2007   -0.9259 N.am      1 <0>        -0.1815
      6 N2         -4.8505   -1.7254    0.9764 N.pl3     1 <0>        -0.3580
      7 C1         -2.0128    0.9712   -0.4858 C.ar      1 <0>         0.1087
      8 C2         -2.3260    0.9847    0.8625 C.ar      1 <0>        -0.0333
      9 C3         -2.6172    0.0848   -1.3605 C.ar      1 <0>        -0.0333
     10 C4          1.4030    1.0791    0.2887 C.2       1 <0>         0.2630
     11 C5          2.5989    0.2546    0.2238 C.ar      1 <0>         0.0382
     12 C6         -3.8919   -0.8158    0.4837 C.ar      1 <0>         0.0247
     13 C7         -3.2726    0.0842    1.3510 C.ar      1 <0>        -0.0392
     14 C8         -3.5641   -0.8155   -0.8722 C.ar      1 <0>        -0.0392
     15 C9          3.6662    0.5043    1.0866 C.ar      1 <0>        -0.0496
     16 C10         2.6788   -0.7865   -0.7012 C.ar      1 <0>        -0.0496
     17 C11         4.8132   -0.2870    1.0243 C.ar      1 <0>        -0.0610
     18 C12         3.8258   -1.5778   -0.7633 C.ar      1 <0>        -0.0610
     19 C13         4.8930   -1.3282    0.0994 C.ar      1 <0>        -0.0617
     20 H1          1.0110    0.8107   -1.7967 H         1 <0>         0.1769
     21 H2         -1.8526    1.6746    1.5541 H         1 <0>         0.0638
     22 H3         -2.3700    0.0631   -2.4174 H         1 <0>         0.0638
     23 H4         -3.5190    0.0932    2.4097 H         1 <0>         0.0636
     24 H5         -4.0384   -1.5131   -1.5579 H         1 <0>         0.0636
     25 H6          3.6241    1.3132    1.8115 H         1 <0>         0.0625
     26 H7          1.8590   -1.0333   -1.3696 H         1 <0>         0.0625
     27 H8          5.6445   -0.0924    1.6956 H         1 <0>         0.0618
     28 H9          3.8856   -2.3931   -1.4786 H         1 <0>         0.0618
     29 H10         5.7853   -1.9453    0.0522 H         1 <0>         0.0618
     30 H11        -5.2978   -2.3794    0.3479 H         1 <0>         0.1423
     31 H12        -5.0872   -1.7280    1.9596 H         1 <0>         0.1423
@<TRIPOS>BOND
     1    1    2 2
     2    1    3 2
     3    1    5 1
     4    1    7 1
     5    4   10 2
     6    5   10 am
     7    5   20 1
     8    6   12 1
     9    6   30 1
    10    6   31 1
    11    7    8 ar
    12    7    9 ar
    13    8   13 ar
    14    8   21 1
    15    9   14 ar
    16    9   22 1
    17   10   11 1
    18   11   15 ar
    19   11   16 ar
    20   12   13 ar
    21   12   14 ar
    22   13   23 1
    23   14   24 1
    24   15   17 ar
    25   15   25 1
    26   16   18 ar
    27   16   26 1
    28   17   19 ar
    29   17   27 1
    30   18   19 ar
    31   18   28 1
    32   19   29 1
