@<TRIPOS>MOLECULE
DB09092
   43    44     0     0     0
SMALL
USER_CHARGES

@<TRIPOS>ATOM
      1 O1         -0.9831    2.8349    1.2378 O.3       1 <0>        -0.3888
      2 O2          0.3145   -1.3895   -0.3999 O.2       1 <0>        -0.2652
      3 O3          4.9356   -1.8928    0.2371 O.2       1 <0>        -0.2462
      4 O4         -2.8180   -3.2383    0.4880 O.3       1 <0>        -0.3937
      5 N1          0.8746    1.5460   -0.5359 N.pl3     1 <0>        -0.3221
      6 N2         -3.2726    0.3436   -0.2621 N.3       1 <0>        -0.3007
      7 N3          4.0924    0.2601   -0.0252 N.am      1 <0>        -0.2796
      8 N4          2.6258   -1.6667   -0.0799 N.am      1 <0>        -0.2622
      9 N5          2.9220    2.4036   -0.3295 N.2       1 <0>        -0.2177
     10 C1         -1.3164    1.5943    0.6106 C.3       1 <0>         0.0857
     11 C2         -0.5567    1.5104   -0.7192 C.3       1 <0>         0.0521
     12 C3         -2.8367    1.5542    0.4210 C.3       1 <0>         0.0264
     13 C4          1.7158    0.4864   -0.3518 C.2       1 <0>         0.1515
     14 C5          2.9613    1.0388   -0.2281 C.cat     1 <0>         0.1678
     15 C6          1.6473    2.6784   -0.5150 C.2       1 <0>         0.0990
     16 C7         -2.8777   -0.8471    0.4934 C.3       1 <0>         0.0219
     17 C8          1.4404   -0.9124   -0.2882 C.2       1 <0>         0.2822
     18 C9          3.9643   -1.1491    0.0576 C.2       1 <0>         0.3331
     19 C10        -4.7229    0.3576   -0.4636 C.3       1 <0>        -0.0126
     20 C11        -3.2334   -2.1113   -0.2725 C.3       1 <0>         0.0569
     21 C12         5.4022    0.8870    0.1020 C.3       1 <0>         0.0181
     22 C13         2.4728   -3.1155    0.0039 C.3       1 <0>         0.0196
     23 H1         -0.9783    0.8217    1.3079 H         1 <0>         0.0624
     24 H2         -0.8099    2.3723   -1.3502 H         1 <0>         0.0518
     25 H3         -0.8045    0.6135   -1.2931 H         1 <0>         0.0518
     26 H4         -3.3246    1.6627    1.3997 H         1 <0>         0.0452
     27 H5         -3.1341    2.4399   -0.1569 H         1 <0>         0.0452
     28 H6          1.2304    3.6686   -0.6402 H         1 <0>         0.1029
     29 H7         -3.3495   -0.8700    1.4855 H         1 <0>         0.0449
     30 H8         -1.8048   -0.8935    0.6792 H         1 <0>         0.0449
     31 H9         -5.0440   -0.4072   -1.1771 H         1 <0>         0.0391
     32 H10        -5.0359    1.3092   -0.9107 H         1 <0>         0.0391
     33 H11        -5.2775    0.2330    0.4736 H         1 <0>         0.0391
     34 H12        -0.0871    2.7526    1.6058 H         1 <0>         0.2099
     35 H13        -2.7397   -2.1496   -1.2492 H         1 <0>         0.0570
     36 H14        -4.3090   -2.2314   -0.4206 H         1 <0>         0.0570
     37 H15         6.1909    0.1465    0.2573 H         1 <0>         0.0458
     38 H16         5.3870    1.5708    0.9563 H         1 <0>         0.0458
     39 H17         5.6184    1.4462   -0.8136 H         1 <0>         0.0458
     40 H18         1.4344   -3.4390   -0.0968 H         1 <0>         0.0458
     41 H19         2.8642   -3.4531    0.9689 H         1 <0>         0.0458
     42 H20         3.0731   -3.5754   -0.7876 H         1 <0>         0.0458
     43 H21        -1.8513   -3.1903    0.5814 H         1 <0>         0.2095
@<TRIPOS>BOND
     1    1   10 1
     2    1   34 1
     3    2   17 2
     4    3   18 2
     5    4   20 1
     6    4   43 1
     7    5   11 1
     8    5   13 2
     9    5   15 1
    10    6   12 1
    11    6   16 1
    12    6   19 1
    13    7   14 2
    14    7   18 am
    15    7   21 1
    16    8   17 am
    17    8   18 am
    18    8   22 1
    19    9   14 1
    20    9   15 2
    21   10   11 1
    22   10   12 1
    23   10   23 1
    24   11   24 1
    25   11   25 1
    26   12   26 1
    27   12   27 1
    28   13   14 1
    29   13   17 1
    30   15   28 1
    31   16   20 1
    32   16   29 1
    33   16   30 1
    34   19   31 1
    35   19   32 1
    36   19   33 1
    37   20   35 1
    38   20   36 1
    39   21   37 1
    40   21   38 1
    41   21   39 1
    42   22   40 1
    43   22   41 1
    44   22   42 1
