@<TRIPOS>MOLECULE
DB09371
   48    51     0     0     0
SMALL
USER_CHARGES

@<TRIPOS>ATOM
      1 O1         -4.5511    0.9272   -0.9074 O.3       1 <0>        -0.3760
      2 O2          6.0430    0.3726   -1.0618 O.2       1 <0>        -0.2971
      3 C1         -2.1681    0.4634   -0.4768 C.3       1 <0>         0.0111
      4 C2         -1.5019   -0.6950    0.3034 C.3       1 <0>        -0.0286
      5 C3         -0.0191   -0.8492   -0.0385 C.3       1 <0>        -0.0308
      6 C4          0.7205    0.4610    0.3655 C.3       1 <0>        -0.0165
      7 C5         -3.6456    0.3026   -0.0073 C.3       1 <0>         0.1317
      8 C6         -1.4462    1.7743   -0.1084 C.3       1 <0>        -0.0433
      9 C7         -2.4428   -1.8720    0.0657 C.3       1 <0>        -0.0458
     10 C8          0.0770    1.6834   -0.3396 C.3       1 <0>        -0.0456
     11 C9         -3.8469   -1.2367   -0.0169 C.3       1 <0>        -0.0118
     12 C10         0.6420   -2.0367    0.6581 C.3       1 <0>        -0.0457
     13 C11        -2.1014    0.2968   -2.0251 C.3       1 <0>        -0.0558
     14 C12         2.2318    0.3377    0.1793 C.2       1 <0>        -0.0661
     15 C13         2.0888   -2.1743    0.1835 C.3       1 <0>        -0.0308
     16 C14         2.8400   -0.8655    0.0709 C.2       1 <0>        -0.0629
     17 C15         3.0260    1.6255    0.1686 C.3       1 <0>        -0.0245
     18 C16        -3.8943    0.8391    1.3453 C.1       1 <0>        -0.0704
     19 C17         4.3189   -1.0355   -0.1699 C.3       1 <0>         0.0272
     20 C18         4.5147    1.4476    0.4315 C.3       1 <0>         0.0098
     21 C19         5.0320    0.2833   -0.3668 C.2       1 <0>         0.1376
     22 C20        -4.0969    1.2755    2.4451 C.1       1 <0>        -0.1163
     23 H1         -1.5503   -0.4760    1.3819 H         1 <0>         0.0310
     24 H2          0.0897   -1.0107   -1.1185 H         1 <0>         0.0309
     25 H3          0.5723    0.6163    1.4455 H         1 <0>         0.0348
     26 H4         -1.5983    2.0197    0.9489 H         1 <0>         0.0272
     27 H5         -1.8554    2.6144   -0.6820 H         1 <0>         0.0272
     28 H6         -2.3879   -2.6055    0.8767 H         1 <0>         0.0269
     29 H7         -2.2064   -2.3943   -0.8681 H         1 <0>         0.0269
     30 H8          0.2973    1.6550   -1.4130 H         1 <0>         0.0271
     31 H9          0.5195    2.6136    0.0360 H         1 <0>         0.0271
     32 H10        -4.3493   -1.5684   -0.9338 H         1 <0>         0.0303
     33 H11        -4.4695   -1.5783    0.8190 H         1 <0>         0.0303
     34 H12         0.1073   -2.9689    0.4440 H         1 <0>         0.0271
     35 H13         0.6185   -1.8982    1.7466 H         1 <0>         0.0271
     36 H14        -2.6174   -0.6032   -2.3737 H         1 <0>         0.0236
     37 H15        -2.5712    1.1516   -2.5259 H         1 <0>         0.0236
     38 H16        -1.0788    0.2391   -2.4054 H         1 <0>         0.0236
     39 H17         2.0967   -2.6588   -0.8014 H         1 <0>         0.0310
     40 H18         2.6149   -2.8452    0.8735 H         1 <0>         0.0310
     41 H19         2.8868    2.1090   -0.8065 H         1 <0>         0.0314
     42 H20         2.6362    2.3084    0.9329 H         1 <0>         0.0314
     43 H21        -4.3244    1.8721   -0.9538 H         1 <0>         0.2114
     44 H22         4.7826   -1.5428    0.6830 H         1 <0>         0.0387
     45 H23         4.4744   -1.6391   -1.0712 H         1 <0>         0.0387
     46 H24         4.7086    1.2470    1.4913 H         1 <0>         0.0345
     47 H25         5.0594    2.3562    0.1548 H         1 <0>         0.0345
     48 H26        -4.2757    1.6625    3.4208 H         1 <0>         0.1229
@<TRIPOS>BOND
     1    1    7 1
     2    1   43 1
     3    2   21 2
     4    3    4 1
     5    3    7 1
     6    3    8 1
     7    3   13 1
     8    4    5 1
     9    4    9 1
    10    4   23 1
    11    5    6 1
    12    5   12 1
    13    5   24 1
    14    6   10 1
    15    6   14 1
    16    6   25 1
    17    7   11 1
    18    7   18 1
    19    8   10 1
    20    8   26 1
    21    8   27 1
    22    9   11 1
    23    9   28 1
    24    9   29 1
    25   10   30 1
    26   10   31 1
    27   11   32 1
    28   11   33 1
    29   12   15 1
    30   12   34 1
    31   12   35 1
    32   13   36 1
    33   13   37 1
    34   13   38 1
    35   14   16 2
    36   14   17 1
    37   15   16 1
    38   15   39 1
    39   15   40 1
    40   16   19 1
    41   17   20 1
    42   17   41 1
    43   17   42 1
    44   18   22 3
    45   19   21 1
    46   19   44 1
    47   19   45 1
    48   20   21 1
    49   20   46 1
    50   20   47 1
    51   22   48 1
