@<TRIPOS>MOLECULE
DB09095
   56    59     0     0     0
SMALL
USER_CHARGES

@<TRIPOS>ATOM
      1 F1         -1.4257   -0.1725    1.5652 F         1 <0>        -0.2377
      2 F2         -3.6373    3.1324   -0.1766 F         1 <0>        -0.2407
      3 O1         -0.6379   -2.2531   -1.2574 O.3       1 <0>        -0.3886
      4 O2          4.7255   -0.2853   -1.0892 O.2       1 <0>        -0.2946
      5 O3          5.5985   -2.4330    0.2688 O.3       1 <0>        -0.3875
      6 O4         -6.2380   -0.1633    2.3561 O.2       1 <0>        -0.2879
      7 C1          1.5594   -0.2792   -0.2725 C.3       1 <0>        -0.0166
      8 C2          0.6856    0.9484    0.0528 C.3       1 <0>        -0.0287
      9 C3         -0.7534    0.8193   -0.4645 C.3       1 <0>         0.0028
     10 C4         -1.4238   -0.4312    0.2032 C.3       1 <0>         0.1528
     11 C5          2.8922    0.1996    0.3525 C.3       1 <0>         0.0281
     12 C6          1.5413    2.1286   -0.4025 C.3       1 <0>        -0.0461
     13 C7          0.9337   -1.4982    0.4277 C.3       1 <0>        -0.0175
     14 C8          2.9879    1.6931   -0.0609 C.3       1 <0>        -0.0335
     15 C9         -0.5504   -1.7142    0.0529 C.3       1 <0>         0.0909
     16 C10        -2.9444   -0.5749   -0.2022 C.3       1 <0>         0.0469
     17 C11        -1.5482    2.1004   -0.1647 C.3       1 <0>        -0.0117
     18 C12         1.7316   -0.5440   -1.7908 C.3       1 <0>        -0.0586
     19 C13        -3.0153    1.9760   -0.5506 C.3       1 <0>         0.1237
     20 C14        -3.6318    0.7640    0.1027 C.2       1 <0>        -0.0198
     21 C15         4.0868   -0.5931   -0.0839 C.2       1 <0>         0.1623
     22 C16         3.5965    2.5451    1.0488 C.3       1 <0>        -0.0617
     23 C17        -3.1703   -0.8965   -1.6976 C.3       1 <0>        -0.0492
     24 C18        -3.5878   -1.7145    0.5751 C.2       1 <0>        -0.0674
     25 C19        -4.6855    0.8862    0.9256 C.2       1 <0>        -0.0121
     26 C20         4.4539   -1.7821    0.7783 C.3       1 <0>         0.1025
     27 C21        -4.6350   -1.5958    1.3968 C.2       1 <0>        -0.0179
     28 C22        -5.2661   -0.2826    1.6176 C.2       1 <0>         0.1788
     29 H1          0.6152    1.0404    1.1498 H         1 <0>         0.0310
     30 H2         -0.7386    0.6909   -1.5516 H         1 <0>         0.0336
     31 H3          2.8360    0.1401    1.4485 H         1 <0>         0.0386
     32 H4          1.4396    2.2924   -1.4816 H         1 <0>         0.0271
     33 H5          1.2531    3.0584    0.0991 H         1 <0>         0.0271
     34 H6          0.9978   -1.3693    1.5161 H         1 <0>         0.0297
     35 H7          1.5009   -2.4018    0.1790 H         1 <0>         0.0297
     36 H8          3.6047    1.8368   -0.9561 H         1 <0>         0.0305
     37 H9         -0.9313   -2.4806    0.7376 H         1 <0>         0.0625
     38 H10        -1.1177    2.9525   -0.7046 H         1 <0>         0.0300
     39 H11        -1.4741    2.3564    0.9008 H         1 <0>         0.0300
     40 H12         0.7809   -0.6183   -2.3224 H         1 <0>         0.0235
     41 H13         2.2977    0.2461   -2.2943 H         1 <0>         0.0235
     42 H14         2.2677   -1.4846   -1.9620 H         1 <0>         0.0235
     43 H15        -3.1193    1.9090   -1.6384 H         1 <0>         0.0699
     44 H16         3.6568    3.5940    0.7400 H         1 <0>         0.0233
     45 H17         2.9967    2.4983    1.9640 H         1 <0>         0.0233
     46 H18         4.6095    2.2047    1.2872 H         1 <0>         0.0233
     47 H19        -4.2220   -0.7503   -1.9779 H         1 <0>         0.0242
     48 H20        -2.5726   -0.2639   -2.3606 H         1 <0>         0.0242
     49 H21        -2.9350   -1.9382   -1.9413 H         1 <0>         0.0242
     50 H22        -3.1805   -2.7131    0.4325 H         1 <0>         0.0583
     51 H23        -0.1217   -3.0769   -1.2754 H         1 <0>         0.2099
     52 H24        -5.1457    1.8469    1.1301 H         1 <0>         0.0656
     53 H25         3.6309   -2.4974    0.7974 H         1 <0>         0.0636
     54 H26         4.6726   -1.4312    1.7908 H         1 <0>         0.0636
     55 H27        -5.0506   -2.4558    1.9088 H         1 <0>         0.0653
     56 H28         5.8068   -3.1649    0.8741 H         1 <0>         0.2100
@<TRIPOS>BOND
     1    1   10 1
     2    2   19 1
     3    3   15 1
     4    3   51 1
     5    4   21 2
     6    5   26 1
     7    5   56 1
     8    6   28 2
     9    7    8 1
    10    7   11 1
    11    7   13 1
    12    7   18 1
    13    8    9 1
    14    8   12 1
    15    8   29 1
    16    9   10 1
    17    9   17 1
    18    9   30 1
    19   10   15 1
    20   10   16 1
    21   11   14 1
    22   11   21 1
    23   11   31 1
    24   12   14 1
    25   12   32 1
    26   12   33 1
    27   13   15 1
    28   13   34 1
    29   13   35 1
    30   14   22 1
    31   14   36 1
    32   15   37 1
    33   16   20 1
    34   16   23 1
    35   16   24 1
    36   17   19 1
    37   17   38 1
    38   17   39 1
    39   18   40 1
    40   18   41 1
    41   18   42 1
    42   19   20 1
    43   19   43 1
    44   20   25 2
    45   21   26 1
    46   22   44 1
    47   22   45 1
    48   22   46 1
    49   23   47 1
    50   23   48 1
    51   23   49 1
    52   24   27 2
    53   24   50 1
    54   25   28 1
    55   25   52 1
    56   26   53 1
    57   26   54 1
    58   27   28 1
    59   27   55 1
