@<TRIPOS>MOLECULE
DB09502
   23    22     0     0     0
SMALL
USER_CHARGES

@<TRIPOS>ATOM
      1 F1         -2.2834    1.7172   -0.2821 F         1 <0>        -0.2349
      2 O1          0.2316    1.6274   -0.5015 O.3       1 <0>        -0.3865
      3 O2         -1.2375   -0.6321   -1.4237 O.3       1 <0>        -0.3858
      4 O3          1.4253   -1.6931    0.5120 O.3       1 <0>        -0.3869
      5 O4          3.8088   -0.6344   -0.4889 O.3       1 <0>        -0.3924
      6 O5         -4.4864    0.2796   -0.6960 O.2       1 <0>        -0.2979
      7 C1          0.2280    0.3873    0.2026 C.3       1 <0>         0.1121
      8 C2         -1.1263   -0.3041   -0.0392 C.3       1 <0>         0.1210
      9 C3          1.4273   -0.4758   -0.2370 C.3       1 <0>         0.1065
     10 C4         -2.3435    0.5258    0.3821 C.3       1 <0>         0.1835
     11 C5          2.7699    0.2204   -0.0213 C.3       1 <0>         0.0727
     12 C6         -3.6542   -0.1614    0.0906 C.2       1 <0>         0.1566
     13 H1          0.3043    0.6089    1.2749 H         1 <0>         0.0647
     14 H2         -1.1450   -1.2531    0.5107 H         1 <0>         0.0653
     15 H3          1.3450   -0.7465   -1.2957 H         1 <0>         0.0643
     16 H4         -2.3082    0.7481    1.4532 H         1 <0>         0.0756
     17 H5          2.8329    1.1601   -0.5769 H         1 <0>         0.0584
     18 H6          2.9478    0.4119    1.0418 H         1 <0>         0.0584
     19 H7          0.9435    2.1760   -0.1317 H         1 <0>         0.2100
     20 H8         -1.9992   -1.2263   -1.5312 H         1 <0>         0.2100
     21 H9          1.5031   -1.4635    1.4538 H         1 <0>         0.2100
     22 H10        -3.8334   -1.1018    0.6393 H         1 <0>         0.1058
     23 H11         4.6497   -0.1705   -0.3357 H         1 <0>         0.2095
@<TRIPOS>BOND
     1    1   10 1
     2    2    7 1
     3    2   19 1
     4    3    8 1
     5    3   20 1
     6    4    9 1
     7    4   21 1
     8    5   11 1
     9    5   23 1
    10    6   12 2
    11    7    8 1
    12    7    9 1
    13    7   13 1
    14    8   10 1
    15    8   14 1
    16    9   11 1
    17    9   15 1
    18   10   12 1
    19   10   16 1
    20   11   17 1
    21   11   18 1
    22   12   22 1
