@<TRIPOS>MOLECULE
DB09042
   47    50     0     0     0
SMALL
USER_CHARGES

@<TRIPOS>ATOM
      1 P1         -7.9649    1.6570    0.2848 P.3       1 <0>         0.4725
      2 F1          1.2155   -1.1391    2.4199 F         1 <0>        -0.2048
      3 O1         -5.1594   -1.5947    0.9467 O.3       1 <0>        -0.4428
      4 O2         -7.1511    0.2636    0.1513 O.3       1 <0>        -0.2830
      5 O3         -3.5003   -1.7054    2.4889 O.2       1 <0>        -0.2259
      6 O4         -7.8824    2.2932   -1.1997 O.3       1 <0>        -0.3026
      7 O5         -6.9554    2.5841    1.1431 O.3       1 <0>        -0.3026
      8 O6         -9.3481    1.5311    0.8532 O.2       1 <0>        -0.2275
      9 N1         -3.0575   -1.2157    0.2167 N.am      1 <0>        -0.2336
     10 N2          4.4747    0.9281    0.1789 N.ar      1 <0>        -0.2511
     11 N3          7.2015    1.3263    0.0883 N.2       1 <0>        -0.1291
     12 N4          8.4990    1.0165   -0.0445 N.pl3     1 <0>        -0.1659
     13 N5          7.5891   -0.8663   -0.3242 N.2       1 <0>        -0.1062
     14 N6          8.7755   -0.2717   -0.2895 N.2       1 <0>        -0.0460
     15 C1         -5.2856   -1.1227   -0.4020 C.3       1 <0>         0.1444
     16 C2         -3.8820   -1.2075   -0.9620 C.3       1 <0>         0.0623
     17 C3         -5.8366    0.2964   -0.3768 C.3       1 <0>         0.0976
     18 C4         -1.6443   -1.0467    0.1711 C.ar      1 <0>         0.0423
     19 C5         -3.8399   -1.5097    1.3305 C.2       1 <0>         0.4077
     20 C6         -0.8819   -1.1755    1.3360 C.ar      1 <0>        -0.0043
     21 C7         -1.0093   -0.7517   -1.0392 C.ar      1 <0>        -0.0394
     22 C8          1.1311   -0.7166    0.0812 C.ar      1 <0>         0.0189
     23 C9          0.5026   -1.0110    1.2912 C.ar      1 <0>         0.1329
     24 C10         0.3751   -0.5870   -1.0839 C.ar      1 <0>        -0.0495
     25 C11         2.5672   -0.5454    0.0295 C.ar      1 <0>         0.0030
     26 C12         3.4066   -1.6256   -0.2107 C.ar      1 <0>        -0.0504
     27 C13         3.1429    0.6992    0.2163 C.ar      1 <0>         0.0362
     28 C14         4.7825   -1.4301   -0.2566 C.ar      1 <0>        -0.0319
     29 C15         5.2621   -0.1455   -0.0571 C.ar      1 <0>         0.1114
     30 C16         6.6725    0.1150   -0.0952 C.2       1 <0>         0.2226
     31 C17         9.5356    2.0093    0.0688 C.3       1 <0>         0.0516
     32 H1         -5.9729   -1.7859   -0.9384 H         1 <0>         0.0774
     33 H2         -3.7292   -2.1566   -1.4885 H         1 <0>         0.0507
     34 H3         -3.6612   -0.3717   -1.6319 H         1 <0>         0.0507
     35 H4         -5.8629    0.7090   -1.3901 H         1 <0>         0.0603
     36 H5         -5.2180    0.9401    0.2571 H         1 <0>         0.0603
     37 H6         -1.3044   -1.4009    2.3059 H         1 <0>         0.0665
     38 H7         -1.5541   -0.6501   -1.9722 H         1 <0>         0.0636
     39 H8          0.8498   -0.3597   -2.0357 H         1 <0>         0.0625
     40 H9          3.0058   -2.6245   -0.3643 H         1 <0>         0.0625
     41 H10         2.5410    1.5829    0.4076 H         1 <0>         0.0836
     42 H11         5.4348   -2.2766   -0.4448 H         1 <0>         0.0640
     43 H12        -8.3700    3.1231   -1.3881 H         1 <0>         0.2220
     44 H13        -7.2602    3.4676    1.4413 H         1 <0>         0.2220
     45 H14         9.8380    2.3012   -0.9395 H         1 <0>         0.0491
     46 H15         9.1489    2.8736    0.6146 H         1 <0>         0.0491
     47 H16        10.3795    1.5769    0.6119 H         1 <0>         0.0491
@<TRIPOS>BOND
     1    1    4 1
     2    1    6 1
     3    1    7 1
     4    1    8 2
     5    2   23 1
     6    3   15 1
     7    3   19 1
     8    4   17 1
     9    5   19 2
    10    6   43 1
    11    7   44 1
    12    9   16 1
    13    9   18 1
    14    9   19 am
    15   10   27 ar
    16   10   29 ar
    17   11   12 1
    18   11   30 2
    19   12   14 1
    20   12   31 1
    21   13   14 2
    22   13   30 1
    23   15   16 1
    24   15   17 1
    25   15   32 1
    26   16   33 1
    27   16   34 1
    28   17   35 1
    29   17   36 1
    30   18   20 ar
    31   18   21 ar
    32   20   23 ar
    33   20   37 1
    34   21   24 ar
    35   21   38 1
    36   22   23 ar
    37   22   24 ar
    38   22   25 1
    39   24   39 1
    40   25   26 ar
    41   25   27 ar
    42   26   28 ar
    43   26   40 1
    44   27   41 1
    45   28   29 ar
    46   28   42 1
    47   29   30 1
    48   31   45 1
    49   31   46 1
    50   31   47 1
