@<TRIPOS>MOLECULE
DB09136
   70    72     0     0     0
SMALL
USER_CHARGES

@<TRIPOS>ATOM
      1 S1          0.1598   -2.0710    3.0477 S.o2      1 <0>         0.1102
      2 S2          0.4417   -5.6420   -2.1205 S.o2      1 <0>         0.1096
      3 O1         -1.4316   -1.9508    3.3939 O.3       1 <0>        -0.2498
      4 O2          0.7739   -2.8417    4.1163 O.2       1 <0>        -0.1421
      5 O3          0.6522   -0.7486    2.7027 O.2       1 <0>        -0.1421
      6 O4         -1.1124   -6.0008   -2.4800 O.3       1 <0>        -0.2498
      7 O5          0.9538   -4.8298   -3.2143 O.2       1 <0>        -0.1421
      8 O6          1.1117   -6.8740   -1.7342 O.2       1 <0>        -0.1421
      9 N1          4.7158    1.8862   -0.1507 N.pl3     1 <0>        -0.2291
     10 N2         -4.8206    1.7489   -0.2730 N.pl3     1 <0>        -0.3304
     11 C1          0.0998   -1.0069    0.1396 C.2       1 <0>        -0.0016
     12 C2          0.2023   -2.4786    0.3217 C.ar      1 <0>         0.0124
     13 C3          1.2365   -0.2945    0.0685 C.2       1 <0>        -0.0163
     14 C4         -1.1939   -0.2826    0.0312 C.ar      1 <0>        -0.0166
     15 C5          0.2344   -3.0334    1.5845 C.ar      1 <0>         0.1247
     16 C6          3.6293    1.2053   -0.0827 C.2       1 <0>         0.2025
     17 C7         -3.5935    1.0611   -0.1700 C.ar      1 <0>         0.0297
     18 C8          0.2640   -3.2518   -0.8214 C.ar      1 <0>        -0.0247
     19 C9          2.5258   -0.9615    0.1698 C.2       1 <0>        -0.0478
     20 C10         1.1855    1.1486   -0.1103 C.2       1 <0>        -0.0478
     21 C11        -1.7908    0.1886    1.1815 C.ar      1 <0>        -0.0522
     22 C12        -1.7546   -0.1056   -1.2161 C.ar      1 <0>        -0.0522
     23 C13         3.6712   -0.2697    0.1005 C.2       1 <0>         0.0098
     24 C14         2.3073    1.8779   -0.1850 C.2       1 <0>         0.0098
     25 C15        -3.0047    0.8683    1.0797 C.ar      1 <0>        -0.0401
     26 C16        -2.9683    0.5742   -1.3180 C.ar      1 <0>        -0.0401
     27 C17         0.3619   -4.6375   -0.6943 C.ar      1 <0>         0.1175
     28 C18         6.0475    1.2356   -0.0501 C.3       1 <0>         0.1428
     29 C19         4.6983    3.3603   -0.3335 C.3       1 <0>         0.1428
     30 C20        -5.9795    1.0993   -0.8528 C.3       1 <0>         0.0093
     31 C21        -4.9349    3.1186    0.1866 C.3       1 <0>         0.0093
     32 C22         0.3322   -4.4190    1.7116 C.ar      1 <0>        -0.0319
     33 C23         0.3960   -5.2211    0.5720 C.ar      1 <0>        -0.0325
     34 C24         6.5056    0.8192   -1.4313 C.3       1 <0>        -0.0054
     35 C25         4.6462    4.0311    1.0224 C.3       1 <0>        -0.0054
     36 C26        -6.7610    0.3688    0.2222 C.3       1 <0>        -0.0494
     37 C27        -4.5853    4.0770   -0.9356 C.3       1 <0>        -0.0494
     38 H1          0.2302   -2.7901   -1.8045 H         1 <0>         0.0644
     39 H2          2.6182   -2.0341    0.2935 H         1 <0>         0.0626
     40 H3          0.2515    1.6939   -0.1788 H         1 <0>         0.0626
     41 H4         -1.3633    0.1283    2.1666 H         1 <0>         0.0624
     42 H5         -1.2755   -0.4778   -2.1173 H         1 <0>         0.0624
     43 H6          4.5947   -0.8297    0.1567 H         1 <0>         0.0683
     44 H7          2.1984    2.9485   -0.2915 H         1 <0>         0.0683
     45 H8         -3.4773    1.2435    1.9839 H         1 <0>         0.0636
     46 H9         -3.4069    0.7253   -2.3010 H         1 <0>         0.0636
     47 H10         6.0460    0.4234    0.6808 H         1 <0>         0.1023
     48 H11         6.7457    1.9796    0.3527 H         1 <0>         0.1023
     49 H12         5.6312    3.6389   -0.8384 H         1 <0>         0.1023
     50 H13         3.9031    3.6732   -1.0144 H         1 <0>         0.1023
     51 H14        -5.6992    0.3949   -1.6441 H         1 <0>         0.0461
     52 H15        -6.6327    1.8423   -1.3263 H         1 <0>         0.0461
     53 H16        -4.2885    3.3142    1.0498 H         1 <0>         0.0461
     54 H17        -5.9591    3.3201    0.5234 H         1 <0>         0.0461
     55 H18         0.3501   -4.9008    2.6850 H         1 <0>         0.0638
     56 H19         0.4621   -6.2983    0.6958 H         1 <0>         0.0638
     57 H20         7.5037    0.3727   -1.3751 H         1 <0>         0.0291
     58 H21         6.5629    1.6740   -2.1145 H         1 <0>         0.0291
     59 H22         5.8357    0.0798   -1.8824 H         1 <0>         0.0291
     60 H23         4.6715    5.1191    0.9022 H         1 <0>         0.0291
     61 H24         5.4995    3.7468    1.6484 H         1 <0>         0.0291
     62 H25         3.7338    3.7787    1.5726 H         1 <0>         0.0291
     63 H26        -6.1551   -0.4141    0.6905 H         1 <0>         0.0245
     64 H27        -7.0894    1.0538    1.0110 H         1 <0>         0.0245
     65 H28        -7.6494   -0.1033   -0.2086 H         1 <0>         0.0245
     66 H29        -3.5523    3.9358   -1.2708 H         1 <0>         0.0245
     67 H30        -5.2401    3.9332   -1.8015 H         1 <0>         0.0245
     68 H31        -4.6927    5.1125   -0.5979 H         1 <0>         0.0245
     69 H32        -1.8926   -2.8046    3.5694 H         1 <0>         0.2449
     70 H33        -1.6861   -5.2278   -2.6940 H         1 <0>         0.2449
@<TRIPOS>BOND
     1    1    3 1
     2    1    4 2
     3    1    5 2
     4    1   15 1
     5    2    6 1
     6    2    7 2
     7    2    8 2
     8    2   27 1
     9    3   69 1
    10    6   70 1
    11    9   16 2
    12    9   28 1
    13    9   29 1
    14   10   17 1
    15   10   30 1
    16   10   31 1
    17   11   12 1
    18   11   13 2
    19   11   14 1
    20   12   15 ar
    21   12   18 ar
    22   13   19 1
    23   13   20 1
    24   14   21 ar
    25   14   22 ar
    26   15   32 ar
    27   16   23 1
    28   16   24 1
    29   17   25 ar
    30   17   26 ar
    31   18   27 ar
    32   18   38 1
    33   19   23 2
    34   19   39 1
    35   20   24 2
    36   20   40 1
    37   21   25 ar
    38   21   41 1
    39   22   26 ar
    40   22   42 1
    41   23   43 1
    42   24   44 1
    43   25   45 1
    44   26   46 1
    45   27   33 ar
    46   28   34 1
    47   28   47 1
    48   28   48 1
    49   29   35 1
    50   29   49 1
    51   29   50 1
    52   30   36 1
    53   30   51 1
    54   30   52 1
    55   31   37 1
    56   31   53 1
    57   31   54 1
    58   32   33 ar
    59   32   55 1
    60   33   56 1
    61   34   57 1
    62   34   58 1
    63   34   59 1
    64   35   60 1
    65   35   61 1
    66   35   62 1
    67   36   63 1
    68   36   64 1
    69   36   65 1
    70   37   66 1
    71   37   67 1
    72   37   68 1
