@<TRIPOS>MOLECULE
DB09083
   70    73     0     0     0
SMALL
USER_CHARGES

@<TRIPOS>ATOM
      1 O1         -5.1475    0.3343   -1.8564 O.3       1 <0>        -0.4914
      2 O2         -5.8772    0.8457    0.7742 O.3       1 <0>        -0.4914
      3 O3          4.0375   -0.1725   -2.3148 O.2       1 <0>        -0.2752
      4 O4         -1.2725   -3.2817    1.3813 O.3       1 <0>        -0.4914
      5 O5         -0.6438   -4.3215   -1.1186 O.3       1 <0>        -0.4914
      6 N1          1.3220    2.9719   -0.2711 N.3       1 <0>        -0.3047
      7 N2          4.4685   -0.0895   -0.0316 N.am      1 <0>        -0.3009
      8 C1         -0.4780    1.3039   -0.1100 C.3       1 <0>         0.0012
      9 C2         -0.8892    1.5910    1.3730 C.3       1 <0>        -0.0193
     10 C3         -1.9363    1.0663   -0.3673 C.ar      1 <0>        -0.0359
     11 C4         -2.2971    1.3189    0.9343 C.ar      1 <0>        -0.0396
     12 C5          0.0703    2.5033   -0.8685 C.3       1 <0>         0.0057
     13 C6         -2.8599    0.7339   -1.3300 C.ar      1 <0>        -0.0125
     14 C7          2.4293    2.1028   -0.6509 C.3       1 <0>         0.0000
     15 C8         -3.6045    1.2550    1.3553 C.ar      1 <0>        -0.0128
     16 C9          3.6011    2.2072    0.3296 C.3       1 <0>        -0.0243
     17 C10        -4.1978    0.6611   -0.9339 C.ar      1 <0>         0.1618
     18 C11        -4.5677    0.9200    0.4003 C.ar      1 <0>         0.1618
     19 C12         4.7994    1.3282   -0.0234 C.3       1 <0>         0.0158
     20 C13         1.5901    4.3539   -0.6732 C.3       1 <0>        -0.0127
     21 C14         4.4351   -0.7748    1.2577 C.3       1 <0>         0.0187
     22 C15         3.0038   -1.0087    1.7305 C.3       1 <0>        -0.0114
     23 C16         4.0910   -0.7220   -1.2132 C.2       1 <0>         0.2199
     24 C17         2.1096   -1.9069    0.8993 C.ar      1 <0>        -0.0386
     25 C18         3.7357   -2.1866   -1.0763 C.3       1 <0>         0.0497
     26 C19         2.4199   -2.4219   -0.3762 C.ar      1 <0>        -0.0317
     27 C20         0.8522   -2.2110    1.4633 C.ar      1 <0>        -0.0128
     28 C21         1.4753   -3.2392   -1.0300 C.ar      1 <0>        -0.0124
     29 C22        -0.0720   -3.0138    0.7974 C.ar      1 <0>         0.1618
     30 C23         0.2411   -3.5302   -0.4513 C.ar      1 <0>         0.1618
     31 C24        -4.6988    0.0860   -3.1865 C.3       1 <0>         0.0790
     32 C25        -6.1759    1.1207    2.1407 C.3       1 <0>         0.0790
     33 C26        -1.5111   -2.7098    2.6662 C.3       1 <0>         0.0790
     34 C27        -1.5687   -3.6704   -1.9877 C.3       1 <0>         0.0790
     35 H1          0.1314    0.3989   -0.2180 H         1 <0>         0.0364
     36 H2         -0.6911    2.6061    1.7354 H         1 <0>         0.0320
     37 H3         -0.4644    0.8855    2.0960 H         1 <0>         0.0320
     38 H4          0.2018    2.2629   -1.9322 H         1 <0>         0.0432
     39 H5         -0.6710    3.3143   -0.8296 H         1 <0>         0.0432
     40 H6         -2.4947    0.5491   -2.3318 H         1 <0>         0.0658
     41 H7          2.1043    1.0593   -0.6475 H         1 <0>         0.0427
     42 H8          2.7675    2.3119   -1.6742 H         1 <0>         0.0427
     43 H9         -3.8061    1.4672    2.3970 H         1 <0>         0.0658
     44 H10         3.2558    1.9774    1.3440 H         1 <0>         0.0293
     45 H11         3.9666    3.2401    0.3633 H         1 <0>         0.0293
     46 H12         5.6214    1.4962    0.6812 H         1 <0>         0.0465
     47 H13         5.1702    1.6129   -1.0151 H         1 <0>         0.0465
     48 H14         1.7016    4.4549   -1.7591 H         1 <0>         0.0391
     49 H15         0.7729    5.0106   -0.3527 H         1 <0>         0.0391
     50 H16         2.4922    4.7476   -0.1953 H         1 <0>         0.0391
     51 H17         4.9810   -1.7205    1.1839 H         1 <0>         0.0468
     52 H18         4.9700   -0.1695    1.9988 H         1 <0>         0.0468
     53 H19         3.0684   -1.4470    2.7356 H         1 <0>         0.0328
     54 H20         2.4906   -0.0464    1.8378 H         1 <0>         0.0328
     55 H21         4.5375   -2.7441   -0.5818 H         1 <0>         0.0407
     56 H22         3.6981   -2.5919   -2.0964 H         1 <0>         0.0407
     57 H23         0.6548   -1.7790    2.4403 H         1 <0>         0.0658
     58 H24         1.7058   -3.6570   -2.0086 H         1 <0>         0.0658
     59 H25        -5.5825   -0.1586   -3.7850 H         1 <0>         0.0660
     60 H26        -4.0335   -0.7832   -3.2322 H         1 <0>         0.0660
     61 H27        -4.2486    0.9786   -3.6341 H         1 <0>         0.0660
     62 H28        -5.7096    0.3903    2.8107 H         1 <0>         0.0660
     63 H29        -5.9242    2.1523    2.4094 H         1 <0>         0.0660
     64 H30        -7.2592    1.0163    2.2616 H         1 <0>         0.0660
     65 H31        -0.8096   -3.0920    3.4155 H         1 <0>         0.0660
     66 H32        -1.5248   -1.6155    2.6249 H         1 <0>         0.0660
     67 H33        -2.5118   -3.0267    2.9781 H         1 <0>         0.0660
     68 H34        -2.1950   -2.9681   -1.4284 H         1 <0>         0.0660
     69 H35        -1.0377   -3.1444   -2.7875 H         1 <0>         0.0660
     70 H36        -2.2120   -4.4321   -2.4365 H         1 <0>         0.0660
@<TRIPOS>BOND
     1    1   17 1
     2    1   31 1
     3    2   18 1
     4    2   32 1
     5    3   23 2
     6    4   29 1
     7    4   33 1
     8    5   30 1
     9    5   34 1
    10    6   12 1
    11    6   14 1
    12    6   20 1
    13    7   19 1
    14    7   21 1
    15    7   23 am
    16    8    9 1
    17    8   10 1
    18    8   12 1
    19    8   35 1
    20    9   11 1
    21    9   36 1
    22    9   37 1
    23   10   11 ar
    24   10   13 ar
    25   11   15 ar
    26   12   38 1
    27   12   39 1
    28   13   17 ar
    29   13   40 1
    30   14   16 1
    31   14   41 1
    32   14   42 1
    33   15   18 ar
    34   15   43 1
    35   16   19 1
    36   16   44 1
    37   16   45 1
    38   17   18 ar
    39   19   46 1
    40   19   47 1
    41   20   48 1
    42   20   49 1
    43   20   50 1
    44   21   22 1
    45   21   51 1
    46   21   52 1
    47   22   24 1
    48   22   53 1
    49   22   54 1
    50   23   25 1
    51   24   26 ar
    52   24   27 ar
    53   25   26 1
    54   25   55 1
    55   25   56 1
    56   26   28 ar
    57   27   29 ar
    58   27   57 1
    59   28   30 ar
    60   28   58 1
    61   29   30 ar
    62   31   59 1
    63   31   60 1
    64   31   61 1
    65   32   62 1
    66   32   63 1
    67   32   64 1
    68   33   65 1
    69   33   66 1
    70   33   67 1
    71   34   68 1
    72   34   69 1
    73   34   70 1
