@<TRIPOS>MOLECULE
DB09090
   73    76     0     0     0
SMALL
USER_CHARGES

@<TRIPOS>ATOM
      1 Br1         4.4356    2.3378   -2.6869 Br        1 <0>        -0.0497
      2 O1         -1.4741   -0.3377   -0.9972 O.3       1 <0>        -0.3745
      3 O2          2.3203    2.6640    2.1409 O.3       1 <0>        -0.3693
      4 O3          6.3531   -2.1203    0.9227 O.3       1 <0>        -0.4914
      5 O4          8.1630   -0.3468   -0.2187 O.3       1 <0>        -0.4914
      6 N1          1.9105    1.0354   -0.2084 N.4       1 <0>         0.2514
      7 C1         -5.7518   -0.6125   -0.9400 C.3       1 <0>        -0.0325
      8 C2         -6.5467    0.4362   -0.1067 C.3       1 <0>        -0.0290
      9 C3         -6.6610   -0.6937    0.9555 C.3       1 <0>        -0.0353
     10 C4         -6.7009   -1.6596   -0.2712 C.3       1 <0>        -0.0461
     11 C5         -4.2820   -0.6830   -0.4870 C.3       1 <0>        -0.0356
     12 C6         -5.3927   -0.7904    1.8105 C.3       1 <0>        -0.0494
     13 C7         -4.2067   -1.2383    0.9482 C.3       1 <0>        -0.0496
     14 C8         -5.8379    1.7120    0.2964 C.3       1 <0>        -0.0593
     15 C9         -7.8804    0.8309   -0.7276 C.3       1 <0>        -0.0593
     16 C10        -3.4774   -1.5508   -1.4502 C.3       1 <0>        -0.0264
     17 C11        -2.0231   -1.6478   -1.0285 C.3       1 <0>         0.0482
     18 C12        -0.1072   -0.3535   -0.6080 C.3       1 <0>         0.0876
     19 C13         0.4316    1.0634   -0.5896 C.3       1 <0>        -0.0056
     20 C14         2.5311    2.4360   -0.2632 C.3       1 <0>        -0.0056
     21 C15         2.1187    0.4433    1.1903 C.3       1 <0>        -0.0056
     22 C16         2.6292    0.1441   -1.2265 C.3       1 <0>        -0.0027
     23 C17         2.0339    3.2903    0.8926 C.3       1 <0>         0.0878
     24 C18         1.6455    1.4139    2.2611 C.3       1 <0>         0.0878
     25 C19         4.1052    0.0400   -0.9778 C.ar      1 <0>         0.0148
     26 C20         4.5556   -0.9835   -0.1481 C.ar      1 <0>        -0.0070
     27 C21         5.0080    0.9306   -1.5514 C.ar      1 <0>         0.0298
     28 C22         5.9199   -1.1168    0.1095 C.ar      1 <0>         0.1620
     29 C23         6.3722    0.7972   -1.2936 C.ar      1 <0>        -0.0019
     30 C24         6.8283   -0.2265   -0.4632 C.ar      1 <0>         0.1626
     31 C25         6.4435   -1.8317    2.3165 C.3       1 <0>         0.0790
     32 C26         8.9135   -1.1697   -1.1095 C.3       1 <0>         0.0790
     33 H1         -5.8656   -0.5052   -2.0246 H         1 <0>         0.0309
     34 H2         -7.5712   -0.6720    1.5638 H         1 <0>         0.0306
     35 H3         -7.6755   -1.8107   -0.7450 H         1 <0>         0.0271
     36 H4         -6.2829   -2.6590   -0.1119 H         1 <0>         0.0271
     37 H5         -3.8438    0.3196   -0.5210 H         1 <0>         0.0304
     38 H6         -5.5447   -1.5382    2.5987 H         1 <0>         0.0268
     39 H7         -5.1842    0.1469    2.3355 H         1 <0>         0.0268
     40 H8         -3.2693   -0.9466    1.4354 H         1 <0>         0.0268
     41 H9         -4.2070   -2.3366    0.9204 H         1 <0>         0.0268
     42 H10        -4.8729    1.5788    0.7887 H         1 <0>         0.0235
     43 H11        -6.4539    2.2934    0.9931 H         1 <0>         0.0235
     44 H12        -5.6526    2.3451   -0.5796 H         1 <0>         0.0235
     45 H13        -8.4972   -0.0024   -1.0717 H         1 <0>         0.0235
     46 H14        -8.4907    1.3911   -0.0092 H         1 <0>         0.0235
     47 H15        -7.7237    1.4785   -1.5987 H         1 <0>         0.0235
     48 H16        -3.5345   -1.1098   -2.4536 H         1 <0>         0.0290
     49 H17        -3.9099   -2.5560   -1.5209 H         1 <0>         0.0290
     50 H18        -1.9129   -2.1358   -0.0542 H         1 <0>         0.0560
     51 H19        -1.4811   -2.2499   -1.7676 H         1 <0>         0.0560
     52 H20         0.3877   -0.9883   -1.3430 H         1 <0>         0.0613
     53 H21        -0.0615   -0.8260    0.3752 H         1 <0>         0.0613
     54 H22        -0.1207    1.6850    0.1204 H         1 <0>         0.0838
     55 H23         0.3426    1.5319   -1.5771 H         1 <0>         0.0838
     56 H24         2.2503    2.9009   -1.2099 H         1 <0>         0.0838
     57 H25         3.6017    2.3503   -0.0923 H         1 <0>         0.0838
     58 H26         3.1935    0.3597    1.3572 H         1 <0>         0.0838
     59 H27         1.6766   -0.5501    1.2728 H         1 <0>         0.0838
     60 H28         2.3798    0.4920   -2.2346 H         1 <0>         0.0868
     61 H29         2.2472   -0.8756   -1.1379 H         1 <0>         0.0868
     62 H30         0.9628    3.5086    0.8248 H         1 <0>         0.0613
     63 H31         2.5545    4.2538    0.8829 H         1 <0>         0.0613
     64 H32         1.8882    1.0088    3.2492 H         1 <0>         0.0613
     65 H33         0.5617    1.5702    2.2402 H         1 <0>         0.0613
     66 H34         3.8624   -1.6963    0.2922 H         1 <0>         0.0660
     67 H35         7.0896    1.4861   -1.7338 H         1 <0>         0.0666
     68 H36         7.1527   -1.0176    2.4962 H         1 <0>         0.0660
     69 H37         6.8027   -2.7280    2.8295 H         1 <0>         0.0660
     70 H38         5.4597   -1.5686    2.7181 H         1 <0>         0.0660
     71 H39         8.8688   -0.7721   -2.1284 H         1 <0>         0.0660
     72 H40         8.5402   -2.1985   -1.0906 H         1 <0>         0.0660
     73 H41         9.9560   -1.1700   -0.7795 H         1 <0>         0.0660
@<TRIPOS>BOND
     1    1   27 1
     2    2   17 1
     3    2   18 1
     4    3   23 1
     5    3   24 1
     6    4   28 1
     7    4   31 1
     8    5   30 1
     9    5   32 1
    10    6   19 1
    11    6   20 1
    12    6   21 1
    13    6   22 1
    14    7    8 1
    15    7   10 1
    16    7   11 1
    17    7   33 1
    18    8    9 1
    19    8   14 1
    20    8   15 1
    21    9   10 1
    22    9   12 1
    23    9   34 1
    24   10   35 1
    25   10   36 1
    26   11   13 1
    27   11   16 1
    28   11   37 1
    29   12   13 1
    30   12   38 1
    31   12   39 1
    32   13   40 1
    33   13   41 1
    34   14   42 1
    35   14   43 1
    36   14   44 1
    37   15   45 1
    38   15   46 1
    39   15   47 1
    40   16   17 1
    41   16   48 1
    42   16   49 1
    43   17   50 1
    44   17   51 1
    45   18   19 1
    46   18   52 1
    47   18   53 1
    48   19   54 1
    49   19   55 1
    50   20   23 1
    51   20   56 1
    52   20   57 1
    53   21   24 1
    54   21   58 1
    55   21   59 1
    56   22   25 1
    57   22   60 1
    58   22   61 1
    59   23   62 1
    60   23   63 1
    61   24   64 1
    62   24   65 1
    63   25   26 ar
    64   25   27 ar
    65   26   28 ar
    66   26   66 1
    67   27   29 ar
    68   28   30 ar
    69   29   30 ar
    70   29   67 1
    71   31   68 1
    72   31   69 1
    73   31   70 1
    74   32   71 1
    75   32   72 1
    76   32   73 1
