@<TRIPOS>MOLECULE
DB09084
   46    48     0     0     0
SMALL
USER_CHARGES

@<TRIPOS>ATOM
      1 O1         -1.4293    1.4286   -0.7616 O.3       1 <0>        -0.4749
      2 N1          1.8184    0.5797   -1.1235 N.pl3     1 <0>        -0.2559
      3 N2          0.5141    0.3454   -1.3453 N.2       1 <0>        -0.1320
      4 N3         -3.7876   -0.6542    0.7083 N.3       1 <0>        -0.3082
      5 C1          2.0688    1.7070   -0.3885 C.ar      1 <0>         0.0730
      6 C2          0.8187    2.2487   -0.1115 C.ar      1 <0>         0.0629
      7 C3         -3.6175    0.6363   -1.3656 C.3       1 <0>        -0.0058
      8 C4          2.7982   -0.3388   -1.6561 C.3       1 <0>         0.0673
      9 C5         -0.0910    1.3628   -0.7284 C.2       1 <0>         0.2417
     10 C6         -4.0916    0.6277    0.0842 C.3       1 <0>         0.0014
     11 C7         -2.1183    0.3882   -1.4647 C.3       1 <0>         0.0924
     12 C8          3.1046   -1.4420   -0.6797 C.ar      1 <0>        -0.0261
     13 C9          3.2630    2.2851    0.0474 C.ar      1 <0>        -0.0359
     14 C10         0.7328    3.4324    0.6403 C.ar      1 <0>        -0.0474
     15 C11         3.1611    3.4627    0.7953 C.ar      1 <0>        -0.0597
     16 C12         1.9186    4.0285    1.0874 C.ar      1 <0>        -0.0609
     17 C13        -4.1550   -0.6380    2.1254 C.3       1 <0>        -0.0130
     18 C14        -4.4819   -1.7419    0.0167 C.3       1 <0>        -0.0130
     19 C15         2.3580   -2.6120   -0.7130 C.ar      1 <0>        -0.0568
     20 C16         4.1302   -1.2755    0.2411 C.ar      1 <0>        -0.0568
     21 C17         2.6422   -3.6348    0.1919 C.ar      1 <0>        -0.0614
     22 C18         4.4144   -2.2983    1.1458 C.ar      1 <0>        -0.0614
     23 C19         3.6703   -3.4779    1.1213 C.ar      1 <0>        -0.0617
     24 H1         -4.1697   -0.0691   -1.9944 H         1 <0>         0.0310
     25 H2         -3.8323    1.6336   -1.7716 H         1 <0>         0.0310
     26 H3          3.7023    0.2226   -1.9181 H         1 <0>         0.0559
     27 H4          2.4091   -0.7450   -2.5982 H         1 <0>         0.0559
     28 H5         -5.1681    0.8415    0.1141 H         1 <0>         0.0427
     29 H6         -3.5961    1.4395    0.6313 H         1 <0>         0.0427
     30 H7         -1.8350    0.4197   -2.5246 H         1 <0>         0.0697
     31 H8         -1.8535   -0.5958   -1.0603 H         1 <0>         0.0697
     32 H9          4.2329    1.8630   -0.1865 H         1 <0>         0.0639
     33 H10        -0.2277    3.8815    0.8739 H         1 <0>         0.0626
     34 H11         4.0665    3.9478    1.1517 H         1 <0>         0.0618
     35 H12         1.8696    4.9450    1.6695 H         1 <0>         0.0618
     36 H13        -3.8781   -1.5827    2.6066 H         1 <0>         0.0391
     37 H14        -5.2292   -0.4766    2.2722 H         1 <0>         0.0391
     38 H15        -3.6111    0.1524    2.6548 H         1 <0>         0.0391
     39 H16        -5.5589   -1.5591   -0.0740 H         1 <0>         0.0391
     40 H17        -4.3504   -2.6837    0.5635 H         1 <0>         0.0391
     41 H18        -4.0663   -1.9333   -0.9770 H         1 <0>         0.0391
     42 H19         1.5546   -2.7444   -1.4320 H         1 <0>         0.0621
     43 H20         4.7286   -0.3709    0.2659 H         1 <0>         0.0621
     44 H21         2.0628   -4.5533    0.1729 H         1 <0>         0.0618
     45 H22         5.2170   -2.1778    1.8675 H         1 <0>         0.0618
     46 H23         3.8921   -4.2746    1.8254 H         1 <0>         0.0618
@<TRIPOS>BOND
     1    1    9 1
     2    1   11 1
     3    2    3 1
     4    2    5 2
     5    2    8 1
     6    3    9 1
     7    4   10 1
     8    4   17 1
     9    4   18 1
    10    5    6 ar
    11    5   13 ar
    12    6    9 2
    13    6   14 ar
    14    7   10 1
    15    7   11 1
    16    7   24 1
    17    7   25 1
    18    8   12 1
    19    8   26 1
    20    8   27 1
    21   10   28 1
    22   10   29 1
    23   11   30 1
    24   11   31 1
    25   12   19 ar
    26   12   20 ar
    27   13   15 ar
    28   13   32 1
    29   14   16 ar
    30   14   33 1
    31   15   16 ar
    32   15   34 1
    33   16   35 1
    34   17   36 1
    35   17   37 1
    36   17   38 1
    37   18   39 1
    38   18   40 1
    39   18   41 1
    40   19   21 ar
    41   19   42 1
    42   20   22 ar
    43   20   43 1
    44   21   23 ar
    45   21   44 1
    46   22   23 ar
    47   22   45 1
    48   23   46 1
