@<TRIPOS>MOLECULE
DB09494
   51    50     0     0     0
SMALL
USER_CHARGES

@<TRIPOS>ATOM
      1 O1         10.4489   -0.5372   -0.1431 O.3       1 <0>        -0.3950
      2 C1          0.4287   -0.4116    0.1852 C.3       1 <0>        -0.0531
      3 C2         -0.8259    0.4651    0.1630 C.3       1 <0>        -0.0531
      4 C3          1.7321    0.3929    0.1459 C.3       1 <0>        -0.0531
      5 C4         -2.1296   -0.3402    0.1292 C.3       1 <0>        -0.0531
      6 C5          2.9876   -0.4805    0.0901 C.3       1 <0>        -0.0531
      7 C6         -3.4215    0.4817    0.0798 C.3       1 <0>        -0.0531
      8 C7          4.2550    0.3752    0.0290 C.3       1 <0>        -0.0531
      9 C8         -4.7187   -0.3266   -0.0222 C.3       1 <0>        -0.0531
     10 C9          5.5129   -0.4950    0.0061 C.3       1 <0>        -0.0530
     11 C10        -6.0137    0.4914   -0.0092 C.3       1 <0>        -0.0531
     12 C11         6.7790    0.3586   -0.0882 C.3       1 <0>        -0.0510
     13 C12        -7.2777   -0.3705   -0.0321 C.3       1 <0>        -0.0533
     14 C13         8.0382   -0.5130   -0.0811 C.3       1 <0>        -0.0297
     15 C14        -8.5360    0.4950   -0.1104 C.3       1 <0>        -0.0559
     16 C15         9.3146    0.3172   -0.1412 C.3       1 <0>         0.0442
     17 C16        -9.7944   -0.3559   -0.1719 C.3       1 <0>        -0.0653
     18 H1          0.4175   -1.0389    1.0850 H         1 <0>         0.0265
     19 H2          0.4043   -1.0918   -0.6752 H         1 <0>         0.0265
     20 H3         -0.8283    1.1170    1.0449 H         1 <0>         0.0265
     21 H4         -0.7923    1.1210   -0.7156 H         1 <0>         0.0265
     22 H5          1.7784    1.0414    1.0295 H         1 <0>         0.0265
     23 H6          1.7166    1.0532   -0.7303 H         1 <0>         0.0265
     24 H7         -2.1641   -0.9937    1.0100 H         1 <0>         0.0265
     25 H8         -2.1077   -1.0028   -0.7455 H         1 <0>         0.0265
     26 H9          3.0199   -1.1286    0.9742 H         1 <0>         0.0265
     27 H10         2.9414   -1.1340   -0.7894 H         1 <0>         0.0265
     28 H11        -3.4674    1.1113    0.9773 H         1 <0>         0.0265
     29 H12        -3.3707    1.1670   -0.7756 H         1 <0>         0.0265
     30 H13         4.2276    1.0068   -0.8673 H         1 <0>         0.0265
     31 H14         4.2893    1.0456    0.8964 H         1 <0>         0.0265
     32 H15        -4.6879   -0.9273   -0.9399 H         1 <0>         0.0265
     33 H16        -4.7475   -1.0390    0.8120 H         1 <0>         0.0265
     34 H17         5.5493   -1.1095    0.9139 H         1 <0>         0.0265
     35 H18         5.4705   -1.1819   -0.8480 H         1 <0>         0.0265
     36 H19        -6.0126    1.1644   -0.8754 H         1 <0>         0.0265
     37 H20        -6.0278    1.1268    0.8849 H         1 <0>         0.0265
     38 H21         6.8144    1.0579    0.7560 H         1 <0>         0.0266
     39 H22         6.7532    0.9588   -1.0056 H         1 <0>         0.0266
     40 H23        -7.3121   -0.9975    0.8669 H         1 <0>         0.0265
     41 H24        -7.2429   -1.0452   -0.8959 H         1 <0>         0.0265
     42 H25         8.0595   -1.1392    0.8196 H         1 <0>         0.0287
     43 H26         8.0194   -1.2096   -0.9286 H         1 <0>         0.0287
     44 H27        -8.5884    1.1551    0.7634 H         1 <0>         0.0263
     45 H28        -8.4938    1.1355   -0.9991 H         1 <0>         0.0263
     46 H29         9.3374    0.9236   -1.0524 H         1 <0>         0.0557
     47 H30         9.3835    0.9820    0.7259 H         1 <0>         0.0557
     48 H31        -9.7878   -1.0030   -1.0547 H         1 <0>         0.0230
     49 H32        -9.8843   -0.9879    0.7173 H         1 <0>         0.0230
     50 H33       -10.6817    0.2828   -0.2257 H         1 <0>         0.0230
     51 H34        11.2357    0.0328   -0.1822 H         1 <0>         0.2094
@<TRIPOS>BOND
     1    1   16 1
     2    1   51 1
     3    2    3 1
     4    2    4 1
     5    2   18 1
     6    2   19 1
     7    3    5 1
     8    3   20 1
     9    3   21 1
    10    4    6 1
    11    4   22 1
    12    4   23 1
    13    5    7 1
    14    5   24 1
    15    5   25 1
    16    6    8 1
    17    6   26 1
    18    6   27 1
    19    7    9 1
    20    7   28 1
    21    7   29 1
    22    8   10 1
    23    8   30 1
    24    8   31 1
    25    9   11 1
    26    9   32 1
    27    9   33 1
    28   10   12 1
    29   10   34 1
    30   10   35 1
    31   11   13 1
    32   11   36 1
    33   11   37 1
    34   12   14 1
    35   12   38 1
    36   12   39 1
    37   13   15 1
    38   13   40 1
    39   13   41 1
    40   14   16 1
    41   14   42 1
    42   14   43 1
    43   15   17 1
    44   15   44 1
    45   15   45 1
    46   16   46 1
    47   16   47 1
    48   17   48 1
    49   17   49 1
    50   17   50 1
