@<TRIPOS>MOLECULE
DB09343
   27    28     0     0     0
SMALL
USER_CHARGES

@<TRIPOS>ATOM
      1 Cl1        -1.4394    2.8754    0.4028 Cl        1 <0>        -0.0760
      2 O1         -3.8660    2.0419   -1.0487 O.2       1 <0>        -0.2661
      3 O2         -3.4291   -2.5006   -0.4351 O.2       1 <0>        -0.2467
      4 N1          1.0435    0.1197    0.5518 N.pl3     1 <0>        -0.2192
      5 N2         -1.8442   -1.0900    0.4476 N.am      1 <0>        -0.3067
      6 N3          1.3442   -2.2722    0.2965 N.2       1 <0>        -0.1038
      7 N4         -3.6572   -0.2303   -0.7497 N.am      1 <0>        -0.2739
      8 C1          1.8107    1.3086    0.2226 C.3       1 <0>         0.0812
      9 C2          2.7060    0.8112   -0.9139 C.3       1 <0>        -0.0058
     10 C3          2.9279   -0.6739   -0.6227 C.3       1 <0>         0.0536
     11 C4          1.6652   -1.0348    0.1262 C.2       1 <0>         0.2806
     12 C5         -0.0806    0.1989    1.4513 C.3       1 <0>         0.1219
     13 C6         -1.3425    0.1759    0.6656 C.2       1 <0>         0.0836
     14 C7         -1.9842    1.2541    0.1839 C.2       1 <0>         0.1281
     15 C8         -3.2467    1.0850   -0.5910 C.2       1 <0>         0.2728
     16 C9         -3.0052   -1.3579   -0.2571 C.2       1 <0>         0.3271
     17 H1          2.4117    1.6194    1.0842 H         1 <0>         0.0726
     18 H2          1.1980    2.1468   -0.1113 H         1 <0>         0.0726
     19 H3          3.6428    1.3711   -0.9858 H         1 <0>         0.0307
     20 H4          2.1771    0.9177   -1.8697 H         1 <0>         0.0307
     21 H5          3.7878   -0.8307    0.0362 H         1 <0>         0.0388
     22 H6          3.0449   -1.2635   -1.5353 H         1 <0>         0.0388
     23 H7         -0.0499   -0.6248    2.1764 H         1 <0>         0.0793
     24 H8         -0.0113    1.1049    2.0656 H         1 <0>         0.0793
     25 H9         -1.3268   -1.8785    0.8258 H         1 <0>         0.1702
     26 H10         2.0374   -2.8872   -0.1430 H         1 <0>         0.3629
     27 H11        -4.5142   -0.3862   -1.2731 H         1 <0>         0.1735
@<TRIPOS>BOND
     1    1   14 1
     2    2   15 2
     3    3   16 2
     4    4    8 1
     5    4   11 1
     6    4   12 1
     7    5   13 1
     8    5   16 am
     9    5   25 1
    10    6   11 2
    11    6   26 1
    12    7   15 am
    13    7   16 am
    14    7   27 1
    15    8    9 1
    16    8   17 1
    17    8   18 1
    18    9   10 1
    19    9   19 1
    20    9   20 1
    21   10   11 1
    22   10   21 1
    23   10   22 1
    24   12   13 1
    25   12   23 1
    26   12   24 1
    27   13   14 2
    28   14   15 1
