@<TRIPOS>MOLECULE
DB09324
   26    27     0     0     0
SMALL
USER_CHARGES

@<TRIPOS>ATOM
      1 S1          0.6897   -1.6541    0.1600 S.o2      1 <0>        -0.0042
      2 O1          0.5141   -2.8208   -0.6826 O.2       1 <0>        -0.1720
      3 O2          1.0949   -1.8018    1.5456 O.2       1 <0>        -0.1720
      4 O3          2.3915    2.1885    1.1869 O.2       1 <0>        -0.2754
      5 O4         -1.8707    2.4989    0.4387 O.3       1 <0>        -0.4793
      6 O5         -0.7638    2.2568   -1.5393 O.2       1 <0>        -0.2488
      7 N1          1.1018    0.7648   -0.1815 N.am      1 <0>        -0.2633
      8 C1         -0.8388   -0.6131    0.0945 C.3       1 <0>         0.1130
      9 C2          1.7407   -0.4689   -0.6650 C.3       1 <0>         0.1535
     10 C3         -0.2603    0.7977    0.3162 C.3       1 <0>         0.1488
     11 C4          3.0368    0.0328   -0.0177 C.3       1 <0>         0.0629
     12 C5          2.2086    1.2444    0.4523 C.2       1 <0>         0.2211
     13 C6         -1.7987   -1.0215    1.2128 C.3       1 <0>        -0.0379
     14 C7         -1.5174   -0.8012   -1.2712 C.3       1 <0>        -0.0379
     15 C8         -0.9673    1.9127   -0.3845 C.2       1 <0>         0.3277
     16 H1          1.7349   -0.5463   -1.7558 H         1 <0>         0.0750
     17 H2         -0.1892    1.0375    1.3852 H         1 <0>         0.0639
     18 H3          3.8338    0.2935   -0.7194 H         1 <0>         0.0393
     19 H4          3.4405   -0.5765    0.7941 H         1 <0>         0.0393
     20 H5         -2.7053   -0.4071    1.1950 H         1 <0>         0.0251
     21 H6         -2.0966   -2.0709    1.1108 H         1 <0>         0.0251
     22 H7         -1.3413   -0.9093    2.2017 H         1 <0>         0.0251
     23 H8         -1.8329   -1.8408   -1.4144 H         1 <0>         0.0251
     24 H9         -2.4143   -0.1787   -1.3604 H         1 <0>         0.0251
     25 H10        -0.8449   -0.5510   -2.0985 H         1 <0>         0.0251
     26 H11        -2.3459    3.2343   -0.0035 H         1 <0>         0.2951
@<TRIPOS>BOND
     1    1    2 2
     2    1    3 2
     3    1    8 1
     4    1    9 1
     5    4   12 2
     6    5   15 1
     7    5   26 1
     8    6   15 2
     9    7    9 1
    10    7   10 1
    11    7   12 am
    12    8   10 1
    13    8   13 1
    14    8   14 1
    15    9   11 1
    16    9   16 1
    17   10   15 1
    18   10   17 1
    19   11   12 1
    20   11   18 1
    21   11   19 1
    22   13   20 1
    23   13   21 1
    24   13   22 1
    25   14   23 1
    26   14   24 1
    27   14   25 1
