@<TRIPOS>MOLECULE
DB09366
   27    27     0     0     0
SMALL
USER_CHARGES

@<TRIPOS>ATOM
      1 I1          4.9192    3.0248   -0.7633 I         1 <0>        -0.0383
      2 I2          4.8245   -3.1164   -0.6185 I         1 <0>        -0.0383
      3 O1         -1.4927    0.0366    0.5718 O.3       1 <0>        -0.4634
      4 O2          0.0238   -0.0574   -1.1639 O.2       1 <0>        -0.2488
      5 O3          5.8365   -0.0695   -1.0696 O.2       1 <0>        -0.2856
      6 N1          2.1219    0.0267    0.5859 N.pl3     1 <0>        -0.3404
      7 C1          0.7734    0.0618    1.1434 C.3       1 <0>         0.1198
      8 C2         -3.8880    0.0322    0.3942 C.3       1 <0>        -0.0214
      9 C3         -2.5720   -0.0103   -0.3671 C.3       1 <0>         0.0923
     10 C4         -0.2389    0.0056    0.0293 C.2       1 <0>         0.3271
     11 C5          2.7856    1.1967    0.2495 C.2       1 <0>         0.0220
     12 C6          2.7488   -1.1775    0.3051 C.2       1 <0>         0.0220
     13 C7         -5.0833   -0.0294   -0.5399 C.3       1 <0>        -0.0622
     14 C8          4.0077    1.2573   -0.3013 C.2       1 <0>         0.0771
     15 C9          3.9682   -1.3017   -0.2408 C.2       1 <0>         0.0771
     16 C10         4.7105   -0.0407   -0.5821 C.2       1 <0>         0.2078
     17 H1          0.6116   -0.7915    1.8126 H         1 <0>         0.0607
     18 H2          0.6151    0.9807    1.7202 H         1 <0>         0.0607
     19 H3         -3.9285   -0.8014    1.1056 H         1 <0>         0.0295
     20 H4         -3.9338    0.9461    0.9986 H         1 <0>         0.0295
     21 H5         -2.5032   -0.9365   -0.9496 H         1 <0>         0.0697
     22 H6         -2.5001    0.8489   -1.0442 H         1 <0>         0.0697
     23 H7          2.2160    2.0925    0.4762 H         1 <0>         0.0821
     24 H8          2.1516   -2.0432    0.5741 H         1 <0>         0.0821
     25 H9         -5.0768   -0.9546   -1.1248 H         1 <0>         0.0231
     26 H10        -6.0149    0.0034    0.0334 H         1 <0>         0.0231
     27 H11        -5.0820    0.8166   -1.2347 H         1 <0>         0.0231
@<TRIPOS>BOND
     1    1   14 1
     2    2   15 1
     3    3    9 1
     4    3   10 1
     5    4   10 2
     6    5   16 2
     7    6    7 1
     8    6   11 1
     9    6   12 2
    10    7   10 1
    11    7   17 1
    12    7   18 1
    13    8    9 1
    14    8   13 1
    15    8   19 1
    16    8   20 1
    17    9   21 1
    18    9   22 1
    19   11   14 2
    20   11   23 1
    21   12   15 1
    22   12   24 1
    23   13   25 1
    24   13   26 1
    25   13   27 1
    26   14   16 1
    27   15   16 1
