@<TRIPOS>MOLECULE
DB09135
   56    56     0     0     0
SMALL
USER_CHARGES

@<TRIPOS>ATOM
      1 I1          2.1307   -1.4673    1.0883 I         1 <0>        -0.0411
      2 I2         -3.9496   -1.1198    0.6826 I         1 <0>        -0.0411
      3 I3         -0.6071    3.9865    0.8772 I         1 <0>        -0.0422
      4 O1          0.9313   -4.3723    0.0370 O.3       1 <0>        -0.3880
      5 O2          1.6358   -4.5371   -2.6493 O.3       1 <0>        -0.3924
      6 O3          4.7050    0.7171   -1.3266 O.3       1 <0>        -0.3880
      7 O4         -1.2412   -4.3215    2.1120 O.2       1 <0>        -0.2756
      8 O5          2.2239    2.0391    2.1453 O.2       1 <0>        -0.2701
      9 O6         -3.7830    2.3836    1.7454 O.2       1 <0>        -0.2701
     10 O7          7.2071    1.2441   -0.2301 O.3       1 <0>        -0.3924
     11 O8         -5.8772    1.4768   -2.0872 O.3       1 <0>        -0.3935
     12 N1         -0.9684   -2.3250    0.8853 N.am      1 <0>        -0.2671
     13 N2          2.3962    2.0099   -0.1676 N.am      1 <0>        -0.3088
     14 N3         -3.6194    2.3900   -0.5676 N.am      1 <0>        -0.3091
     15 C1         -1.0212   -3.0301   -0.4288 C.3       1 <0>         0.0480
     16 C2         -0.8882   -0.9247    0.8829 C.ar      1 <0>         0.0641
     17 C3          0.3544   -3.4803   -0.9173 C.3       1 <0>         0.0943
     18 C4          0.3551   -0.2973    0.9613 C.ar      1 <0>         0.0489
     19 C5          0.4350    1.0953    0.9590 C.ar      1 <0>         0.0654
     20 C6         -2.0517   -0.1595    0.8021 C.ar      1 <0>         0.0489
     21 C7         -1.9718    1.2330    0.7996 C.ar      1 <0>         0.0654
     22 C8         -0.7285    1.8604    0.8782 C.ar      1 <0>         0.0397
     23 C9          0.3093   -4.1826   -2.2706 C.3       1 <0>         0.0716
     24 C10        -1.0921   -3.0972    2.0871 C.2       1 <0>         0.2168
     25 C11         3.6930    2.6270   -0.2502 C.3       1 <0>         0.0401
     26 C12         1.7592    1.7633    1.0423 C.2       1 <0>         0.2462
     27 C13         4.8359    1.6139   -0.2231 C.3       1 <0>         0.0936
     28 C14        -3.1930    2.0356    0.7130 C.2       1 <0>         0.2462
     29 C15        -0.9978   -2.3701    3.4089 C.3       1 <0>         0.0127
     30 C16         6.2143    2.2637   -0.2886 C.3       1 <0>         0.0716
     31 C17        -4.7914    3.1983   -0.8162 C.3       1 <0>         0.0351
     32 C18        -6.0359    2.3434   -0.9714 C.3       1 <0>         0.0597
     33 H1         -1.4854   -2.3717   -1.1722 H         1 <0>         0.0495
     34 H2         -1.6700   -3.9057   -0.3069 H         1 <0>         0.0495
     35 H3          1.0165   -2.6324   -1.0751 H         1 <0>         0.0632
     36 H4         -0.1157   -3.5318   -3.0410 H         1 <0>         0.0583
     37 H5         -0.2762   -5.1059   -2.2101 H         1 <0>         0.0583
     38 H6          3.7054    3.1816   -1.1952 H         1 <0>         0.0488
     39 H7          3.8017    3.3450    0.5700 H         1 <0>         0.0488
     40 H8          4.7771    0.9989    0.6828 H         1 <0>         0.0632
     41 H9          1.9392    1.7358   -1.0329 H         1 <0>         0.1491
     42 H10        -1.2362   -3.0628    4.2221 H         1 <0>         0.0323
     43 H11         0.0143   -1.9930    3.5659 H         1 <0>         0.0323
     44 H12        -1.7127   -1.5457    3.4530 H         1 <0>         0.0323
     45 H13         1.1003   -3.8619    0.8467 H         1 <0>         0.2099
     46 H14         6.3664    2.9515    0.5488 H         1 <0>         0.0583
     47 H15         6.3466    2.8024   -1.2326 H         1 <0>         0.0583
     48 H16        -3.0863    2.0671   -1.3702 H         1 <0>         0.1491
     49 H17        -4.9204    3.9117    0.0040 H         1 <0>         0.0485
     50 H18        -4.5938    3.7541   -1.7387 H         1 <0>         0.0485
     51 H19         1.5757   -4.9827   -3.5115 H         1 <0>         0.2095
     52 H20         3.8281    0.3018   -1.2612 H         1 <0>         0.2099
     53 H21        -6.2125    1.7336   -0.0798 H         1 <0>         0.0573
     54 H22        -6.9108    2.9769   -1.1467 H         1 <0>         0.0573
     55 H23         8.0718    1.6865   -0.2744 H         1 <0>         0.2095
     56 H24        -6.6921    0.9508   -2.1577 H         1 <0>         0.2095
@<TRIPOS>BOND
     1    1   18 1
     2    2   20 1
     3    3   22 1
     4    4   17 1
     5    4   45 1
     6    5   23 1
     7    5   51 1
     8    6   27 1
     9    6   52 1
    10    7   24 2
    11    8   26 2
    12    9   28 2
    13   10   30 1
    14   10   55 1
    15   11   32 1
    16   11   56 1
    17   12   15 1
    18   12   16 1
    19   12   24 am
    20   13   25 1
    21   13   26 am
    22   13   41 1
    23   14   28 am
    24   14   31 1
    25   14   48 1
    26   15   17 1
    27   15   33 1
    28   15   34 1
    29   16   18 ar
    30   16   20 ar
    31   17   23 1
    32   17   35 1
    33   18   19 ar
    34   19   22 ar
    35   19   26 1
    36   20   21 ar
    37   21   22 ar
    38   21   28 1
    39   23   36 1
    40   23   37 1
    41   24   29 1
    42   25   27 1
    43   25   38 1
    44   25   39 1
    45   27   30 1
    46   27   40 1
    47   29   42 1
    48   29   43 1
    49   29   44 1
    50   30   46 1
    51   30   47 1
    52   31   32 1
    53   31   49 1
    54   31   50 1
    55   32   53 1
    56   32   54 1
