@<TRIPOS>MOLECULE
DB09212
   36    37     0     0     0
SMALL
USER_CHARGES

@<TRIPOS>ATOM
      1 O1          4.5119    1.9313    0.7719 O.2       1 <0>        -0.2971
      2 O2         -5.3745   -1.7145    0.7519 O.3       1 <0>        -0.4802
      3 O3         -3.3072   -1.6097    1.6744 O.2       1 <0>        -0.2503
      4 C1          2.6625    0.3876    0.4730 C.3       1 <0>         0.0215
      5 C2          2.7459   -0.9462   -0.2716 C.3       1 <0>        -0.0428
      6 C3          4.0887   -1.5258    0.1539 C.3       1 <0>        -0.0457
      7 C4          5.0387   -0.3347    0.1364 C.3       1 <0>         0.0061
      8 C5          1.7681    1.3967   -0.2187 C.3       1 <0>        -0.0182
      9 C6          4.1189    0.8047    0.4962 C.2       1 <0>         0.1367
     10 C7          0.3294    0.9458   -0.2559 C.ar      1 <0>        -0.0467
     11 C8         -0.1205    0.1936   -1.3301 C.ar      1 <0>        -0.0583
     12 C9         -0.5192    1.2909    0.7850 C.ar      1 <0>        -0.0583
     13 C10        -2.3157    0.1163   -0.3241 C.ar      1 <0>        -0.0339
     14 C11        -1.4511   -0.2237   -1.3646 C.ar      1 <0>        -0.0575
     15 C12        -1.8498    0.8735    0.7507 C.ar      1 <0>        -0.0575
     16 C13        -3.7383   -0.3297   -0.3608 C.3       1 <0>         0.0784
     17 C14        -4.7521    0.8322   -0.3880 C.3       1 <0>        -0.0482
     18 C15        -4.0900   -1.2717    0.7960 C.2       1 <0>         0.3119
     19 H1          2.3530    0.2157    1.5117 H         1 <0>         0.0380
     20 H2          2.7481   -0.8009   -1.3589 H         1 <0>         0.0272
     21 H3          1.9221   -1.6197   -0.0152 H         1 <0>         0.0272
     22 H4          4.4242   -2.3290   -0.5087 H         1 <0>         0.0269
     23 H5          4.0151   -1.9338    1.1695 H         1 <0>         0.0269
     24 H6          5.4431   -0.1617   -0.8649 H         1 <0>         0.0342
     25 H7          5.8416   -0.4439    0.8682 H         1 <0>         0.0342
     26 H8          2.1212    1.5975   -1.2395 H         1 <0>         0.0320
     27 H9          1.8311    2.3667    0.2927 H         1 <0>         0.0320
     28 H10         0.5393   -0.0704   -2.1512 H         1 <0>         0.0620
     29 H11        -0.1650    1.8784    1.6272 H         1 <0>         0.0620
     30 H12        -3.8955   -0.9228   -1.2726 H         1 <0>         0.0459
     31 H13        -1.7978   -0.8113   -2.2105 H         1 <0>         0.0621
     32 H14        -2.5075    1.1492    1.5706 H         1 <0>         0.0621
     33 H15        -4.7627    1.3805    0.5606 H         1 <0>         0.0241
     34 H16        -4.5089    1.5411   -1.1870 H         1 <0>         0.0241
     35 H17        -5.7690    0.4658   -0.5651 H         1 <0>         0.0241
     36 H18        -5.5784   -2.3181    1.4978 H         1 <0>         0.2951
@<TRIPOS>BOND
     1    1    9 2
     2    2   18 1
     3    2   36 1
     4    3   18 2
     5    4    5 1
     6    4    8 1
     7    4    9 1
     8    4   19 1
     9    5    6 1
    10    5   20 1
    11    5   21 1
    12    6    7 1
    13    6   22 1
    14    6   23 1
    15    7    9 1
    16    7   24 1
    17    7   25 1
    18    8   10 1
    19    8   26 1
    20    8   27 1
    21   10   11 ar
    22   10   12 ar
    23   11   14 ar
    24   11   28 1
    25   12   15 ar
    26   12   29 1
    27   13   14 ar
    28   13   15 ar
    29   13   16 1
    30   14   31 1
    31   15   32 1
    32   16   17 1
    33   16   18 1
    34   16   30 1
    35   17   33 1
    36   17   34 1
    37   17   35 1
