@<TRIPOS>MOLECULE
DB09073
   62    66     0     0     0
SMALL
USER_CHARGES

@<TRIPOS>ATOM
      1 O1          4.3340   -2.2447    0.1682 O.2       1 <0>        -0.2669
      2 O2          7.1290   -0.8484    1.3598 O.2       1 <0>        -0.2922
      3 N1          2.8025   -0.5132    0.1441 N.am      1 <0>        -0.2890
      4 N2          1.2545    1.3117    0.1545 N.ar      1 <0>        -0.1961
      5 N3         -5.1412    0.4197   -0.0125 N.pl3     1 <0>        -0.3263
      6 N4         -7.5318   -1.1101   -0.3199 N.3       1 <0>        -0.3130
      7 N5          2.0058    3.5824    0.2464 N.ar      1 <0>        -0.2219
      8 N6         -0.2819    3.0830    0.1786 N.pl3     1 <0>        -0.2684
      9 N7         -1.5100    1.0436    0.0841 N.ar      1 <0>        -0.2383
     10 C1          1.6674   -1.3893    0.0943 C.3       1 <0>         0.0393
     11 C2          1.6183   -2.3611    1.2651 C.3       1 <0>        -0.0319
     12 C3          1.6788   -2.3066   -1.1253 C.3       1 <0>        -0.0319
     13 C4          0.6316   -3.4148    0.7883 C.3       1 <0>        -0.0511
     14 C5          0.8950   -3.5524   -0.7092 C.3       1 <0>        -0.0511
     15 C6          2.5445    0.8852    0.1693 C.ar      1 <0>         0.1490
     16 C7          4.0881   -1.0367    0.1766 C.2       1 <0>         0.2639
     17 C8          3.6207    1.7632    0.2145 C.ar      1 <0>         0.0395
     18 C9          5.2312   -0.0619    0.2249 C.2       1 <0>         0.0852
     19 C10         5.0170    1.2705    0.2219 C.2       1 <0>        -0.0227
     20 C11         3.2706    3.1112    0.2565 C.ar      1 <0>         0.0421
     21 C12         6.0947    2.3299    0.2120 C.3       1 <0>        -0.0382
     22 C13         6.6029   -0.6092    0.2776 C.2       1 <0>         0.1656
     23 C14        -5.2414   -0.9151    0.5877 C.3       1 <0>         0.0248
     24 C15        -6.0397    0.6775   -1.1460 C.3       1 <0>         0.0248
     25 C16         1.0580    2.6393    0.1934 C.ar      1 <0>         0.2224
     26 C17        -6.7014   -1.2662    0.8732 C.3       1 <0>         0.0117
     27 C18        -7.4711    0.2705   -0.7976 C.3       1 <0>         0.0117
     28 C19        -3.9262    1.1125    0.0352 C.ar      1 <0>         0.0482
     29 C20         7.3029   -0.8615   -1.0271 C.3       1 <0>        -0.0012
     30 C21        -1.5113    2.3993    0.1289 C.ar      1 <0>         0.1251
     31 C22        -3.8949    2.5019    0.0819 C.ar      1 <0>        -0.0359
     32 C23        -2.7171    0.4361    0.0385 C.ar      1 <0>         0.0507
     33 C24        -2.6725    3.1630    0.1294 C.ar      1 <0>        -0.0198
     34 H1          0.7150   -0.8486    0.0814 H         1 <0>         0.0529
     35 H2          1.2745   -1.8717    2.1829 H         1 <0>         0.0285
     36 H3          2.5695   -2.8441    1.5011 H         1 <0>         0.0285
     37 H4          2.6747   -2.6017   -1.4673 H         1 <0>         0.0285
     38 H5          1.2047   -1.8132   -1.9820 H         1 <0>         0.0285
     39 H6          0.7474   -4.3646    1.3187 H         1 <0>         0.0266
     40 H7         -0.3953   -3.0657    0.9514 H         1 <0>         0.0266
     41 H8         -0.0443   -3.6428   -1.2648 H         1 <0>         0.0266
     42 H9          1.4855   -4.4522   -0.9152 H         1 <0>         0.0266
     43 H10         4.0151    3.9000    0.2999 H         1 <0>         0.0838
     44 H11        -4.6888   -0.9565    1.5347 H         1 <0>         0.0476
     45 H12        -4.8081   -1.6613   -0.0906 H         1 <0>         0.0476
     46 H13        -5.6880    0.1131   -2.0194 H         1 <0>         0.0476
     47 H14        -6.0443    1.7373   -1.4260 H         1 <0>         0.0476
     48 H15         6.0342    2.9544    1.1098 H         1 <0>         0.0278
     49 H16         6.0081    2.9652   -0.6763 H         1 <0>         0.0278
     50 H17         7.1025    1.9044    0.1949 H         1 <0>         0.0278
     51 H18        -6.7612   -2.3043    1.2180 H         1 <0>         0.0439
     52 H19        -7.0903   -0.6363    1.6832 H         1 <0>         0.0439
     53 H20        -7.8826    0.9472   -0.0382 H         1 <0>         0.0439
     54 H21        -8.1000    0.3683   -1.6891 H         1 <0>         0.0439
     55 H22        -8.4972   -1.3444   -0.0907 H         1 <0>         0.1220
     56 H23        -0.3553    4.0952    0.2096 H         1 <0>         0.1564
     57 H24         6.6754   -0.5685   -1.8735 H         1 <0>         0.0309
     58 H25         7.5283   -1.9275   -1.1139 H         1 <0>         0.0309
     59 H26         8.2260   -0.2770   -1.0602 H         1 <0>         0.0309
     60 H27        -4.8120    3.0846    0.0943 H         1 <0>         0.0638
     61 H28        -2.6554   -0.6464   -0.0084 H         1 <0>         0.0849
     62 H29        -2.6449    4.2474    0.1688 H         1 <0>         0.0652
@<TRIPOS>BOND
     1    1   16 2
     2    2   22 2
     3    3   10 1
     4    3   15 1
     5    3   16 am
     6    4   15 ar
     7    4   25 ar
     8    5   23 1
     9    5   24 1
    10    5   28 1
    11    6   26 1
    12    6   27 1
    13    6   55 1
    14    7   20 ar
    15    7   25 ar
    16    8   25 1
    17    8   30 1
    18    8   56 1
    19    9   30 ar
    20    9   32 ar
    21   10   11 1
    22   10   12 1
    23   10   34 1
    24   11   13 1
    25   11   35 1
    26   11   36 1
    27   12   14 1
    28   12   37 1
    29   12   38 1
    30   13   14 1
    31   13   39 1
    32   13   40 1
    33   14   41 1
    34   14   42 1
    35   15   17 ar
    36   16   18 1
    37   17   19 1
    38   17   20 ar
    39   18   19 2
    40   18   22 1
    41   19   21 1
    42   20   43 1
    43   21   48 1
    44   21   49 1
    45   21   50 1
    46   22   29 1
    47   23   26 1
    48   23   44 1
    49   23   45 1
    50   24   27 1
    51   24   46 1
    52   24   47 1
    53   26   51 1
    54   26   52 1
    55   27   53 1
    56   27   54 1
    57   28   31 ar
    58   28   32 ar
    59   29   57 1
    60   29   58 1
    61   29   59 1
    62   30   33 ar
    63   31   33 ar
    64   31   60 1
    65   32   61 1
    66   33   62 1
