@<TRIPOS>MOLECULE
DB09115
   18    19     0     0     0
SMALL
USER_CHARGES

@<TRIPOS>ATOM
      1 I1         -0.1800   -3.7155   -0.0001 I         1 <0>        -0.0431
      2 I2         -4.2989    0.5461    0.0009 I         1 <0>        -0.0399
      3 O1         -1.6266    2.3732   -0.0003 O.3       1 <0>        -0.5036
      4 N1          1.0058    1.7034   -0.0000 N.ar      1 <0>        -0.2512
      5 C1          0.4362   -0.6381   -0.0002 C.ar      1 <0>         0.0171
      6 C2          0.0792    0.7265   -0.0002 C.ar      1 <0>         0.1142
      7 C3         -1.2752    1.0491   -0.0000 C.ar      1 <0>         0.1558
      8 C4         -0.5576   -1.6317   -0.0000 C.ar      1 <0>         0.0238
      9 C5          1.7993   -0.9635   -0.0000 C.ar      1 <0>        -0.0500
     10 C6         -2.2634    0.0616   -0.0002 C.ar      1 <0>         0.0579
     11 C7         -1.9045   -1.2806   -0.0001 C.ar      1 <0>        -0.0312
     12 C8          2.7564    0.0409    0.0000 C.ar      1 <0>        -0.0430
     13 C9          2.3107    1.3470    0.0001 C.ar      1 <0>         0.0284
     14 H1          2.1639   -1.9850    0.0000 H         1 <0>         0.0625
     15 H2         -2.6758   -2.0477   -0.0000 H         1 <0>         0.0640
     16 H3          3.8149   -0.1920    0.0002 H         1 <0>         0.0633
     17 H4          3.0130    2.1741    0.0003 H         1 <0>         0.0830
     18 H5         -2.5975    2.4323   -0.0003 H         1 <0>         0.2923
@<TRIPOS>BOND
     1    1    8 1
     2    2   10 1
     3    3    7 1
     4    3   18 1
     5    4    6 ar
     6    4   13 ar
     7    5    6 ar
     8    5    8 ar
     9    5    9 ar
    10    6    7 ar
    11    7   10 ar
    12    8   11 ar
    13    9   12 ar
    14    9   14 1
    15   10   11 ar
    16   11   15 1
    17   12   13 ar
    18   12   16 1
    19   13   17 1
