@<TRIPOS>MOLECULE
DB09225
   40    42     0     0     0
SMALL
USER_CHARGES

@<TRIPOS>ATOM
      1 Cl1        -0.6577   -5.0559   -1.7902 Cl        1 <0>        -0.0835
      2 S1         -2.0925   -0.1949    1.9691 S.3       1 <0>        -0.0881
      3 O1          0.9493   -0.0397   -1.1539 O.3       1 <0>        -0.4901
      4 N1          4.1948    0.3297    0.5179 N.3       1 <0>        -0.3051
      5 C1         -0.3700   -0.0012   -0.7291 C.2       1 <0>         0.1294
      6 C2         -0.8952   -1.3210   -0.3173 C.ar      1 <0>         0.0318
      7 C3          3.2559    0.0994   -0.5698 C.3       1 <0>         0.0325
      8 C4          1.8231    0.1719   -0.0664 C.3       1 <0>         0.1022
      9 C5         -2.4666    1.3560   -0.3428 C.ar      1 <0>        -0.0078
     10 C6         -1.6502   -1.5253    0.8550 C.ar      1 <0>         0.0235
     11 C7         -1.0640    1.1515   -0.7433 C.2       1 <0>        -0.0111
     12 C8         -3.0257    0.8294    0.8364 C.ar      1 <0>         0.0200
     13 C9         -0.5967   -2.4355   -1.1237 C.ar      1 <0>        -0.0317
     14 C10        -2.0795   -2.8181    1.1965 C.ar      1 <0>        -0.0459
     15 C11        -3.2577    2.1808   -1.1597 C.ar      1 <0>        -0.0534
     16 C12        -4.3579    1.1213    1.1665 C.ar      1 <0>        -0.0474
     17 C13         3.9574    1.6346    1.1400 C.3       1 <0>        -0.0129
     18 C14         5.5760    0.2429    0.0375 C.3       1 <0>        -0.0129
     19 C15        -1.0348   -3.7151   -0.7793 C.ar      1 <0>         0.0417
     20 C16        -1.7744   -3.9063    0.3814 C.ar      1 <0>        -0.0423
     21 C17        -4.5835    2.4593   -0.8264 C.ar      1 <0>        -0.0611
     22 C18        -5.1333    1.9288    0.3357 C.ar      1 <0>        -0.0607
     23 H1          3.4189   -0.8935   -1.0091 H         1 <0>         0.0460
     24 H2          3.3950    0.8183   -1.3887 H         1 <0>         0.0460
     25 H3          1.5972    1.1573    0.3547 H         1 <0>         0.0709
     26 H4          1.6668   -0.5887    0.7106 H         1 <0>         0.0709
     27 H5         -0.5633    2.0465   -1.1101 H         1 <0>         0.0660
     28 H6         -0.0185   -2.3041   -2.0376 H         1 <0>         0.0639
     29 H7         -2.6600   -2.9926    2.1000 H         1 <0>         0.0629
     30 H8         -2.8479    2.6145   -2.0700 H         1 <0>         0.0624
     31 H9         -4.8078    0.7242    2.0739 H         1 <0>         0.0629
     32 H10         4.7682    1.8768    1.8382 H         1 <0>         0.0391
     33 H11         3.9010    2.4463    0.4055 H         1 <0>         0.0391
     34 H12         3.0525    1.6350    1.7555 H         1 <0>         0.0391
     35 H13         5.7676   -0.7406   -0.4057 H         1 <0>         0.0391
     36 H14         6.2814    0.3534    0.8687 H         1 <0>         0.0391
     37 H15         5.8014    1.0098   -0.7126 H         1 <0>         0.0391
     38 H16        -2.1213   -4.8963    0.6658 H         1 <0>         0.0632
     39 H17        -5.1836    3.0937   -1.4718 H         1 <0>         0.0618
     40 H18        -6.1641    2.1473    0.5987 H         1 <0>         0.0618
@<TRIPOS>BOND
     1    1   19 1
     2    2   10 1
     3    2   12 1
     4    3    5 1
     5    3    8 1
     6    4    7 1
     7    4   17 1
     8    4   18 1
     9    5    6 1
    10    5   11 2
    11    6   10 ar
    12    6   13 ar
    13    7    8 1
    14    7   23 1
    15    7   24 1
    16    8   25 1
    17    8   26 1
    18    9   11 1
    19    9   12 ar
    20    9   15 ar
    21   10   14 ar
    22   11   27 1
    23   12   16 ar
    24   13   19 ar
    25   13   28 1
    26   14   20 ar
    27   14   29 1
    28   15   21 ar
    29   15   30 1
    30   16   22 ar
    31   16   31 1
    32   17   32 1
    33   17   33 1
    34   17   34 1
    35   18   35 1
    36   18   36 1
    37   18   37 1
    38   19   20 ar
    39   20   38 1
    40   21   22 ar
    41   21   39 1
    42   22   40 1
