@<TRIPOS>MOLECULE
DB09050
   75    78     0     0     0
SMALL
USER_CHARGES

@<TRIPOS>ATOM
      1 S1         -0.8139    0.9674   -0.3809 S.3       1 <0>        -0.1309
      2 S2         -7.2779    4.8681   -1.0370 S.3       1 <0>         0.0491
      3 O1         -3.5003   -2.6382   -1.5623 O.2       1 <0>        -0.2731
      4 O2         -0.7743   -4.2396   -1.2834 O.3       1 <0>        -0.4762
      5 O3         -0.9128   -4.0229    0.9890 O.2       1 <0>        -0.2437
      6 O4         -5.7538   -0.3889   -1.9216 O.2       1 <0>        -0.2683
      7 O5         -5.6008   -0.2498    1.1701 O.3       1 <0>        -0.3811
      8 O6          5.9762    0.9983    1.7017 O.2       1 <0>        -0.2525
      9 O7         -8.0947   -1.3019    1.9386 O.co2     1 <0>        -0.5457
     10 O8         -7.8953    0.3665    3.4804 O.co2     1 <0>        -0.5457
     11 N1         -1.4870   -1.4882   -1.1328 N.am      1 <0>        -0.2488
     12 N2         -3.7362    0.5973   -1.2387 N.am      1 <0>        -0.2963
     13 N3          2.9859   -1.8704    0.2123 N.pl3     1 <0>        -0.1056
     14 N4          3.5178   -2.4965   -0.9837 N.pl3     1 <0>        -0.1379
     15 N5          6.2561   -0.3349   -0.2211 N.am      1 <0>        -0.2618
     16 N6          5.4635   -2.4474   -2.3552 N.pl3     1 <0>        -0.3388
     17 N7         -6.0965    1.0265    0.8694 N.2       1 <0>        -0.0751
     18 N8         -6.0218    3.0088   -2.2143 N.2       1 <0>        -0.2024
     19 N9         -6.9479    3.5203   -0.1015 N.2       1 <0>        -0.1854
     20 N10         7.9205    1.1481    0.4603 N.am      1 <0>        -0.2979
     21 N11        -6.4630    4.9010   -3.5915 N.pl3     1 <0>        -0.3363
     22 N12         8.8899    4.5493    1.6266 N.3       1 <0>        -0.3285
     23 C1         -1.3082   -0.1643   -1.7005 C.3       1 <0>         0.1042
     24 C2         -2.8148   -0.2102   -2.0370 C.3       1 <0>         0.1286
     25 C3         -2.7418   -1.6973   -1.5872 C.2       1 <0>         0.2440
     26 C4         -0.5413   -2.1288   -0.3983 C.2       1 <0>         0.1281
     27 C5          0.5276   -1.4690    0.1079 C.2       1 <0>         0.0352
     28 C6          0.7144    0.0420   -0.0085 C.3       1 <0>         0.0249
     29 C7          1.6599   -2.1231    0.8628 C.3       1 <0>         0.1985
     30 C8         -0.7641   -3.5558   -0.1223 C.2       1 <0>         0.3516
     31 C9         -5.1084    0.4169   -1.2704 C.2       1 <0>         0.2700
     32 C10         3.9704   -0.9932    0.6153 C.2       1 <0>         0.2212
     33 C11         4.7760   -2.0063   -1.2798 C.2       1 <0>         0.1792
     34 C12         5.0890   -1.0602   -0.2938 C.2       1 <0>         0.1445
     35 C13        -5.8483    1.3617   -0.3608 C.2       1 <0>         0.2085
     36 C14         2.7891   -3.4960   -1.7335 C.3       1 <0>         0.0695
     37 C15        -6.2926    2.6759   -0.8979 C.2       1 <0>         0.1969
     38 C16         6.6492    0.6364    0.7395 C.2       1 <0>         0.3041
     39 C17        -5.9127   -0.5359    2.5247 C.3       1 <0>         0.1718
     40 C18        -6.5166    4.2084   -2.4266 C.2       1 <0>         0.1758
     41 C19         8.5637    2.1513    1.2774 C.3       1 <0>         0.0254
     42 C20        -5.4572   -1.9623    2.8178 C.3       1 <0>        -0.0172
     43 C21        -5.1685    0.4575    3.4097 C.3       1 <0>        -0.0172
     44 C22        -7.4513   -0.4869    2.6582 C.2       1 <0>         0.0871
     45 C23         8.2241    3.5542    0.7961 C.3       1 <0>         0.0087
     46 H1         -0.6557   -0.1627   -2.5817 H         1 <0>         0.0644
     47 H2         -3.0178   -0.1000   -3.1089 H         1 <0>         0.0622
     48 H3          1.0897    0.4452    0.9379 H         1 <0>         0.0425
     49 H4          1.4522    0.2634   -0.7870 H         1 <0>         0.0425
     50 H5         -3.3686    1.3252   -0.6303 H         1 <0>         0.1499
     51 H6          1.5601   -3.2076    0.9568 H         1 <0>         0.1106
     52 H7          1.7059   -1.7243    1.8834 H         1 <0>         0.1106
     53 H8          3.8458   -0.3791    1.4949 H         1 <0>         0.1421
     54 H9          2.1756   -4.0761   -1.0434 H         1 <0>         0.0512
     55 H10         2.1631   -2.9786   -2.4632 H         1 <0>         0.0512
     56 H11         3.4815   -4.1792   -2.2278 H         1 <0>         0.0512
     57 H12        -0.9192   -5.1999   -1.1452 H         1 <0>         0.2954
     58 H13         6.9254   -0.5274   -0.9619 H         1 <0>         0.1567
     59 H14         6.3896   -2.0927   -2.5732 H         1 <0>         0.1439
     60 H15         5.1002   -3.1278   -3.0138 H         1 <0>         0.1439
     61 H16         8.4122    0.8085   -0.3606 H         1 <0>         0.1503
     62 H17         8.2548    2.0119    2.3198 H         1 <0>         0.0475
     63 H18         9.6425    1.9706    1.2161 H         1 <0>         0.0475
     64 H19        -5.7355   -2.2751    3.8297 H         1 <0>         0.0273
     65 H20        -5.8853   -2.6786    2.1070 H         1 <0>         0.0273
     66 H21        -4.3692   -2.0502    2.7148 H         1 <0>         0.0273
     67 H22        -5.5238    1.4862    3.2812 H         1 <0>         0.0273
     68 H23        -5.2820    0.2062    4.4702 H         1 <0>         0.0273
     69 H24        -4.0984    0.4662    3.1719 H         1 <0>         0.0273
     70 H25         7.1408    3.7174    0.8280 H         1 <0>         0.0437
     71 H26         8.5397    3.6823   -0.2454 H         1 <0>         0.0437
     72 H27        -6.0154    4.5213   -4.4192 H         1 <0>         0.1442
     73 H28        -6.8682    5.8268   -3.6828 H         1 <0>         0.1442
     74 H29         8.5752    4.4578    2.5918 H         1 <0>         0.1183
     75 H30         8.6136    5.4823    1.3235 H         1 <0>         0.1183
@<TRIPOS>BOND
     1    1   23 1
     2    1   28 1
     3    2   19 1
     4    2   40 1
     5    3   25 2
     6    4   30 1
     7    4   57 1
     8    5   30 2
     9    6   31 2
    10    7   17 1
    11    7   39 1
    12    8   38 2
    13    9   44 2
    14   10   44 1
    15   11   23 1
    16   11   25 am
    17   11   26 1
    18   12   24 1
    19   12   31 am
    20   12   50 1
    21   13   14 1
    22   13   29 1
    23   13   32 2
    24   14   33 1
    25   14   36 1
    26   15   34 1
    27   15   38 am
    28   15   58 1
    29   16   33 1
    30   16   59 1
    31   16   60 1
    32   17   35 2
    33   18   37 1
    34   18   40 2
    35   19   37 2
    36   20   38 am
    37   20   41 1
    38   20   61 1
    39   21   40 1
    40   21   72 1
    41   21   73 1
    42   22   45 1
    43   22   74 1
    44   22   75 1
    45   23   24 1
    46   23   46 1
    47   24   25 1
    48   24   47 1
    49   26   27 2
    50   26   30 1
    51   27   28 1
    52   27   29 1
    53   28   48 1
    54   28   49 1
    55   29   51 1
    56   29   52 1
    57   31   35 1
    58   32   34 1
    59   32   53 1
    60   33   34 2
    61   35   37 1
    62   36   54 1
    63   36   55 1
    64   36   56 1
    65   39   42 1
    66   39   43 1
    67   39   44 1
    68   41   45 1
    69   41   62 1
    70   41   63 1
    71   42   64 1
    72   42   65 1
    73   42   66 1
    74   43   67 1
    75   43   68 1
    76   43   69 1
    77   45   70 1
    78   45   71 1
