@<TRIPOS>MOLECULE
DB09326
    4     3     0     0     0
SMALL
USER_CHARGES

@<TRIPOS>ATOM
      1 N1          0.0000   -0.0000    0.2956 N.3       1 <0>        -0.3437
      2 H1          0.9237    0.1726   -0.0985 H         1 <0>         0.1146
      3 H2         -0.6114    0.7136   -0.0985 H         1 <0>         0.1146
      4 H3         -0.3124   -0.8862   -0.0985 H         1 <0>         0.1146
@<TRIPOS>BOND
     1    1    2 1
     2    1    3 1
     3    1    4 1
