@<TRIPOS>MOLECULE
DB09462
   14    13     0     0     0
SMALL
USER_CHARGES

@<TRIPOS>ATOM
      1 O1          0.2866    1.5335    0.1297 O.3       1 <0>        -0.3873
      2 O2          2.4646   -0.1599    0.4067 O.3       1 <0>        -0.3924
      3 O3         -2.3055    0.4693    0.4736 O.3       1 <0>        -0.3924
      4 C1          0.0874    0.1567    0.4584 C.3       1 <0>         0.1012
      5 C2          1.2401   -0.6405   -0.1377 C.3       1 <0>         0.0723
      6 C3         -1.2538   -0.2929   -0.1097 C.3       1 <0>         0.0723
      7 H1          0.0911    0.0982    1.5519 H         1 <0>         0.0639
      8 H2          1.2940   -0.5258   -1.2255 H         1 <0>         0.0583
      9 H3          1.1519   -1.7045    0.1007 H         1 <0>         0.0583
     10 H4         -1.4331   -1.3511    0.1054 H         1 <0>         0.0583
     11 H5         -1.2945   -0.1342   -1.1926 H         1 <0>         0.0583
     12 H6          0.2820    1.6147   -0.8394 H         1 <0>         0.2100
     13 H7          2.5271    0.7868    0.1927 H         1 <0>         0.2095
     14 H8         -3.1379    0.1494    0.0858 H         1 <0>         0.2095
@<TRIPOS>BOND
     1    1    4 1
     2    1   12 1
     3    2    5 1
     4    2   13 1
     5    3    6 1
     6    3   14 1
     7    4    5 1
     8    4    6 1
     9    4    7 1
    10    5    8 1
    11    5    9 1
    12    6   10 1
    13    6   11 1
