@<TRIPOS>MOLECULE
DB09101
   54    56     0     0     0
SMALL
USER_CHARGES

@<TRIPOS>ATOM
      1 Cl1         6.2502    2.6504    2.0806 Cl        1 <0>        -0.0806
      2 F1          4.4784    2.4801   -0.2807 F         1 <0>        -0.2037
      3 O1         -3.3703   -0.6735   -2.5184 O.3       1 <0>        -0.3930
      4 O2          1.8913   -2.1558   -1.3225 O.3       1 <0>        -0.4948
      5 O3          0.0452    3.8746   -0.6264 O.2       1 <0>        -0.2863
      6 O4         -1.9972    5.0235    0.5486 O.3       1 <0>        -0.4770
      7 O5         -3.9945    4.1961   -0.1975 O.2       1 <0>        -0.2449
      8 N1         -2.1000    0.4226   -0.2868 N.pl3     1 <0>        -0.3401
      9 C1         -2.8808   -0.8057   -0.1625 C.3       1 <0>         0.0599
     10 C2         -3.4505   -0.9481    1.2683 C.3       1 <0>        -0.0237
     11 C3         -0.7255    0.3278   -0.6077 C.ar      1 <0>         0.0566
     12 C4         -3.9725   -0.8151   -1.2356 C.3       1 <0>         0.0652
     13 C5          0.0450    1.5070   -0.7321 C.ar      1 <0>         0.0465
     14 C6         -4.2230   -2.2618    1.4336 C.3       1 <0>        -0.0607
     15 C7         -2.3942   -0.8239    2.3710 C.3       1 <0>        -0.0607
     16 C8         -2.6689    1.6696   -0.1000 C.2       1 <0>         0.0232
     17 C9         -0.0641   -0.8960   -0.8152 C.ar      1 <0>         0.0046
     18 C10        -2.0384    2.8457   -0.1922 C.2       1 <0>         0.1220
     19 C11         2.0324    0.2313   -1.2474 C.ar      1 <0>        -0.0005
     20 C12        -0.5930    2.8343   -0.5253 C.2       1 <0>         0.2034
     21 C13         1.4096    1.4594   -1.0485 C.ar      1 <0>        -0.0420
     22 C14         1.2975   -0.9435   -1.1311 C.ar      1 <0>         0.1256
     23 C15         3.4863    0.1933   -1.5834 C.3       1 <0>         0.0038
     24 C16         4.3939    0.1168   -0.3728 C.ar      1 <0>        -0.0063
     25 C17        -2.8055    4.0698    0.0390 C.2       1 <0>         0.3420
     26 C18         4.8413    1.2869    0.2136 C.ar      1 <0>         0.1451
     27 C19         4.7535   -1.1257    0.1178 C.ar      1 <0>        -0.0554
     28 C20         1.0655   -3.3097   -1.1844 C.3       1 <0>         0.0788
     29 C21         5.6767    1.2121    1.3282 C.ar      1 <0>         0.0764
     30 C22         5.5886   -1.2005    1.2323 C.ar      1 <0>        -0.0599
     31 C23         6.0502   -0.0316    1.8376 C.ar      1 <0>        -0.0406
     32 H1         -2.3270   -1.7227   -0.3406 H         1 <0>         0.0553
     33 H2         -4.1788   -0.1456    1.4460 H         1 <0>         0.0316
     34 H3         -4.7116   -0.0178   -1.1078 H         1 <0>         0.0578
     35 H4         -4.5126   -1.7657   -1.2482 H         1 <0>         0.0578
     36 H5         -4.5681   -2.3812    2.4667 H         1 <0>         0.0233
     37 H6         -3.5948   -3.1253    1.1901 H         1 <0>         0.0233
     38 H7         -5.1139   -2.2917    0.7998 H         1 <0>         0.0233
     39 H8         -1.9203    0.1622    2.3718 H         1 <0>         0.0233
     40 H9         -2.8446   -0.9646    3.3596 H         1 <0>         0.0233
     41 H10        -1.6107   -1.5790    2.2479 H         1 <0>         0.0233
     42 H11        -3.7250    1.6319    0.1439 H         1 <0>         0.0819
     43 H12        -0.6053   -1.8196   -0.7300 H         1 <0>         0.0675
     44 H13         1.9854    2.3767   -1.1427 H         1 <0>         0.0629
     45 H14         3.7528    1.0753   -2.1829 H         1 <0>         0.0363
     46 H15         3.7044   -0.6449   -2.2594 H         1 <0>         0.0363
     47 H16        -2.9306    0.1931   -2.5419 H         1 <0>         0.2095
     48 H17         4.4088   -2.0434   -0.3481 H         1 <0>         0.0621
     49 H18         0.2735   -3.3374   -1.9408 H         1 <0>         0.0660
     50 H19         0.6838   -3.4179   -0.1631 H         1 <0>         0.0660
     51 H20         1.7032   -4.1806   -1.3708 H         1 <0>         0.0660
     52 H21         5.8811   -2.1689    1.6278 H         1 <0>         0.0618
     53 H22        -2.4774    5.8622    0.7172 H         1 <0>         0.2954
     54 H23         6.7007   -0.1057    2.7053 H         1 <0>         0.0633
@<TRIPOS>BOND
     1    1   29 1
     2    2   26 1
     3    3   12 1
     4    3   47 1
     5    4   22 1
     6    4   28 1
     7    5   20 2
     8    6   25 1
     9    6   53 1
    10    7   25 2
    11    8    9 1
    12    8   11 1
    13    8   16 2
    14    9   10 1
    15    9   12 1
    16    9   32 1
    17   10   14 1
    18   10   15 1
    19   10   33 1
    20   11   13 ar
    21   11   17 ar
    22   12   34 1
    23   12   35 1
    24   13   20 1
    25   13   21 ar
    26   14   36 1
    27   14   37 1
    28   14   38 1
    29   15   39 1
    30   15   40 1
    31   15   41 1
    32   16   18 1
    33   16   42 1
    34   17   22 ar
    35   17   43 1
    36   18   20 1
    37   18   25 1
    38   19   21 ar
    39   19   22 ar
    40   19   23 1
    41   21   44 1
    42   23   24 1
    43   23   45 1
    44   23   46 1
    45   24   26 ar
    46   24   27 ar
    47   26   29 ar
    48   27   30 ar
    49   27   48 1
    50   28   49 1
    51   28   50 1
    52   28   51 1
    53   29   31 ar
    54   30   31 ar
    55   30   52 1
    56   31   54 1
