@<TRIPOS>MOLECULE
DB09496
   47    47     0     0     0
SMALL
USER_CHARGES

@<TRIPOS>ATOM
      1 O1          0.3711   -0.6624   -0.0061 O.3       1 <0>        -0.4613
      2 O2         -0.4731   -2.7213   -0.6275 O.2       1 <0>        -0.2456
      3 O3         -8.2156    0.5401    0.5109 O.3       1 <0>        -0.4951
      4 C1          2.7084   -0.0247    0.1584 C.3       1 <0>        -0.0069
      5 C2          4.1326   -0.6185    0.1922 C.3       1 <0>        -0.0471
      6 C3          2.5561    1.1998   -0.7715 C.3       1 <0>        -0.0500
      7 C4          5.2011    0.3764    0.6566 C.3       1 <0>        -0.0529
      8 C5          1.7002   -1.1380   -0.1702 C.3       1 <0>         0.0956
      9 C6          6.6123   -0.2177    0.6703 C.3       1 <0>        -0.0559
     10 C7          2.8785    0.9434   -2.2372 C.3       1 <0>        -0.0649
     11 C8          7.6814    0.7726    1.1058 C.3       1 <0>        -0.0653
     12 C9         -0.6198   -1.5635   -0.2698 C.2       1 <0>         0.3320
     13 C10        -1.9202   -0.8913   -0.0473 C.2       1 <0>         0.0231
     14 C11        -3.0581   -1.5727   -0.2431 C.2       1 <0>        -0.0478
     15 C12        -4.4093   -1.0191   -0.0456 C.ar      1 <0>        -0.0246
     16 C13        -4.6033    0.3623   -0.0398 C.ar      1 <0>        -0.0511
     17 C14        -5.4946   -1.8764    0.1354 C.ar      1 <0>        -0.0511
     18 C15        -5.8823    0.8863    0.1472 C.ar      1 <0>        -0.0194
     19 C16        -6.7737   -1.3525    0.3224 C.ar      1 <0>        -0.0194
     20 C17        -6.9675    0.0288    0.3285 C.ar      1 <0>         0.1201
     21 C18        -8.3422    1.9613    0.5058 C.3       1 <0>         0.0788
     22 H1          2.4711    0.3340    1.1701 H         1 <0>         0.0333
     23 H2          4.4001   -1.0120   -0.7958 H         1 <0>         0.0269
     24 H3          4.1446   -1.4771    0.8762 H         1 <0>         0.0269
     25 H4          3.1845    2.0212   -0.4091 H         1 <0>         0.0266
     26 H5          1.5263    1.5728   -0.7066 H         1 <0>         0.0266
     27 H6          4.9490    0.7379    1.6610 H         1 <0>         0.0265
     28 H7          5.2116    1.2494   -0.0045 H         1 <0>         0.0265
     29 H8          1.8517   -1.9792    0.5179 H         1 <0>         0.0700
     30 H9          1.8416   -1.5063   -1.1927 H         1 <0>         0.0700
     31 H10         6.6351   -1.0831    1.3432 H         1 <0>         0.0263
     32 H11         6.8608   -0.5873   -0.3317 H         1 <0>         0.0263
     33 H12         2.2230    0.1824   -2.6690 H         1 <0>         0.0230
     34 H13         3.9170    0.6285   -2.3726 H         1 <0>         0.0230
     35 H14         2.7367    1.8639   -2.8135 H         1 <0>         0.0230
     36 H15         7.7141    1.6336    0.4307 H         1 <0>         0.0230
     37 H16         7.4853    1.1377    2.1189 H         1 <0>         0.0230
     38 H17         8.6667    0.2962    1.0992 H         1 <0>         0.0230
     39 H18        -1.8910    0.1381    0.2904 H         1 <0>         0.0689
     40 H19        -3.0253   -2.6132   -0.5579 H         1 <0>         0.0626
     41 H20        -3.7912    1.0661   -0.1972 H         1 <0>         0.0625
     42 H21        -5.3621   -2.9557    0.1351 H         1 <0>         0.0625
     43 H22        -5.9629    1.9679    0.1363 H         1 <0>         0.0654
     44 H23        -7.6153   -2.0251    0.4633 H         1 <0>         0.0654
     45 H24        -7.7876    2.4179    1.3325 H         1 <0>         0.0660
     46 H25        -8.0653    2.3864   -0.4649 H         1 <0>         0.0660
     47 H26        -9.4008    2.1920    0.6653 H         1 <0>         0.0660
@<TRIPOS>BOND
     1    1    8 1
     2    1   12 1
     3    2   12 2
     4    3   20 1
     5    3   21 1
     6    4    5 1
     7    4    6 1
     8    4    8 1
     9    4   22 1
    10    5    7 1
    11    5   23 1
    12    5   24 1
    13    6   10 1
    14    6   25 1
    15    6   26 1
    16    7    9 1
    17    7   27 1
    18    7   28 1
    19    8   29 1
    20    8   30 1
    21    9   11 1
    22    9   31 1
    23    9   32 1
    24   10   33 1
    25   10   34 1
    26   10   35 1
    27   11   36 1
    28   11   37 1
    29   11   38 1
    30   12   13 1
    31   13   14 2
    32   13   39 1
    33   14   15 1
    34   14   40 1
    35   15   16 ar
    36   15   17 ar
    37   16   18 ar
    38   16   41 1
    39   17   19 ar
    40   17   42 1
    41   18   20 ar
    42   18   43 1
    43   19   20 ar
    44   19   44 1
    45   21   45 1
    46   21   46 1
    47   21   47 1
