@<TRIPOS>MOLECULE
DB09238
   83    87     0     0     0
SMALL
USER_CHARGES

@<TRIPOS>ATOM
      1 O1          1.9275   -2.0042    1.6661 O.3       1 <0>        -0.4600
      2 O2          3.5700   -1.1806    3.0744 O.2       1 <0>        -0.2452
      3 O3          6.6613    1.8900    0.2040 O.3       1 <0>        -0.4646
      4 O4          5.9036    2.2354   -1.9562 O.2       1 <0>        -0.2452
      5 O5         -0.6499    2.1500   -2.3963 O.3       1 <0>        -0.5760
      6 O6          0.5962    0.4375   -2.9738 O.2       1 <0>         0.0414
      7 N1         -3.2761   -0.6435    0.3663 N.3       1 <0>        -0.2891
      8 N2         -0.9094   -1.9500    1.3912 N.3       1 <0>        -0.2967
      9 N3          4.9725   -1.9952   -1.2301 N.pl3     1 <0>        -0.3207
     10 N4          0.3400    1.4012   -2.2121 N.pl3     1 <0>         0.0796
     11 C1         -2.5839   -1.6821   -0.4066 C.3       1 <0>         0.0126
     12 C2         -2.3281    0.0670    1.2332 C.3       1 <0>         0.0126
     13 C3         -1.8563   -2.6599    0.5226 C.3       1 <0>         0.0119
     14 C4         -1.6017   -0.9108    2.1632 C.3       1 <0>         0.0119
     15 C5         -3.9678    0.2894   -0.5209 C.3       1 <0>         0.0610
     16 C6         -0.2195   -2.8835    2.2793 C.3       1 <0>         0.0333
     17 C7         -5.1660   -0.3468   -1.2101 C.ar      1 <0>        -0.0259
     18 C8         -4.3406    1.5878    0.1794 C.ar      1 <0>        -0.0259
     19 C9          1.0807   -2.2803    2.7865 C.3       1 <0>         0.1054
     20 C10        -5.5568    0.0920   -2.4751 C.ar      1 <0>        -0.0568
     21 C11        -5.5724    1.7038    0.8235 C.ar      1 <0>        -0.0568
     22 C12        -5.8736   -1.3684   -0.5769 C.ar      1 <0>        -0.0568
     23 C13        -3.4510    2.6620    0.1770 C.ar      1 <0>        -0.0568
     24 C14         4.3348    0.1980    0.4464 C.3       1 <0>         0.0508
     25 C15         3.8736   -1.2374    0.7245 C.2       1 <0>         0.0652
     26 C16         5.3064    0.2944   -0.7340 C.2       1 <0>         0.0651
     27 C17         3.1292   -1.4597    1.9747 C.2       1 <0>         0.3376
     28 C18         4.1919   -2.2503   -0.1135 C.2       1 <0>         0.0157
     29 C19         3.1438    1.0799    0.2028 C.ar      1 <0>        -0.0287
     30 C20        -6.6552   -0.4910   -3.1071 C.ar      1 <0>        -0.0614
     31 C21        -5.9143    2.8941    1.4654 C.ar      1 <0>        -0.0614
     32 C22        -6.9721   -1.9514   -1.2088 C.ar      1 <0>        -0.0614
     33 C23        -3.7929    3.8521    0.8190 C.ar      1 <0>        -0.0614
     34 C24         5.5583   -0.7744   -1.5231 C.2       1 <0>         0.0157
     35 C25        -7.3628   -1.5128   -2.4739 C.ar      1 <0>        -0.0617
     36 C26        -5.0246    3.9683    1.4632 C.ar      1 <0>        -0.0617
     37 C27         3.7598   -3.6828    0.0461 C.3       1 <0>        -0.0260
     38 C28         2.3030    0.8331   -0.8825 C.ar      1 <0>         0.0197
     39 C29         2.8785    2.1459    1.0624 C.ar      1 <0>        -0.0572
     40 C30         5.9808    1.5884   -0.9282 C.2       1 <0>         0.3373
     41 C31         6.4519   -0.7739   -2.7339 C.3       1 <0>        -0.0260
     42 C32         1.1966    1.6522   -1.1079 C.ar      1 <0>         0.2734
     43 C33         1.7723    2.9651    0.8368 C.ar      1 <0>        -0.0551
     44 C34         0.9313    2.7181   -0.2482 C.ar      1 <0>         0.0156
     45 C35         7.3749    3.1304    0.1707 C.3       1 <0>         0.0820
     46 H1         -1.8555   -1.2347   -1.0976 H         1 <0>         0.0439
     47 H2         -3.2818   -2.2672   -1.0149 H         1 <0>         0.0439
     48 H3         -1.5792    0.6158    0.6473 H         1 <0>         0.0439
     49 H4         -2.8323    0.7613    1.9132 H         1 <0>         0.0439
     50 H5         -2.5896   -3.2203    1.1185 H         1 <0>         0.0439
     51 H6         -1.3180   -3.3843   -0.1008 H         1 <0>         0.0439
     52 H7         -2.3233   -1.3568    2.8617 H         1 <0>         0.0439
     53 H8         -0.8901   -0.3288    2.7587 H         1 <0>         0.0439
     54 H9         -3.2710    0.5709   -1.3269 H         1 <0>         0.0562
     55 H10        -0.8542   -3.2011    3.1155 H         1 <0>         0.0460
     56 H11         0.0477   -3.7878    1.7162 H         1 <0>         0.0460
     57 H12         0.9165   -1.3666    3.3672 H         1 <0>         0.0710
     58 H13         1.5817   -3.0113    3.4327 H         1 <0>         0.0710
     59 H14        -5.0150    0.8880   -2.9791 H         1 <0>         0.0621
     60 H15        -6.2853    0.8880    0.8699 H         1 <0>         0.0621
     61 H16        -5.6078   -1.7228    0.4152 H         1 <0>         0.0621
     62 H17        -2.4933    2.5960   -0.3296 H         1 <0>         0.0621
     63 H18         4.8728    0.5287    1.3458 H         1 <0>         0.0451
     64 H19        -6.9599   -0.1490   -4.0918 H         1 <0>         0.0618
     65 H20        -6.8711    2.9833    1.9716 H         1 <0>         0.0618
     66 H21        -7.5258   -2.7441   -0.7142 H         1 <0>         0.0618
     67 H22        -3.1009    4.6892    0.8150 H         1 <0>         0.0618
     68 H23         5.1788   -2.7736   -1.8462 H         1 <0>         0.1516
     69 H24        -8.2189   -1.9658   -2.9653 H         1 <0>         0.0618
     70 H25        -5.2905    4.8948    1.9638 H         1 <0>         0.0618
     71 H26         4.5880   -4.3600   -0.1924 H         1 <0>         0.0290
     72 H27         3.4495   -3.9284    1.0654 H         1 <0>         0.0290
     73 H28         2.9311   -3.9047   -0.6340 H         1 <0>         0.0290
     74 H29         2.5170   -0.0007   -1.5463 H         1 <0>         0.0688
     75 H30         3.5244    2.3510    1.9119 H         1 <0>         0.0621
     76 H31         5.8548   -0.9124   -3.6412 H         1 <0>         0.0290
     77 H32         7.0308    0.1457   -2.8481 H         1 <0>         0.0290
     78 H33         7.1744   -1.5955   -2.6702 H         1 <0>         0.0290
     79 H34         1.5658    3.7949    1.5065 H         1 <0>         0.0620
     80 H35         0.0791    3.3772   -0.3926 H         1 <0>         0.0685
     81 H36         7.8813    3.2569    1.1312 H         1 <0>         0.0661
     82 H37         6.6793    3.9631    0.0280 H         1 <0>         0.0661
     83 H38         8.1270    3.1138   -0.6238 H         1 <0>         0.0661
@<TRIPOS>BOND
     1    1   19 1
     2    1   27 1
     3    2   27 2
     4    3   40 1
     5    3   45 1
     6    4   40 2
     7    5   10 1
     8    6   10 2
     9    7   11 1
    10    7   12 1
    11    7   15 1
    12    8   13 1
    13    8   14 1
    14    8   16 1
    15    9   28 1
    16    9   34 1
    17    9   68 1
    18   10   42 1
    19   11   13 1
    20   11   46 1
    21   11   47 1
    22   12   14 1
    23   12   48 1
    24   12   49 1
    25   13   50 1
    26   13   51 1
    27   14   52 1
    28   14   53 1
    29   15   17 1
    30   15   18 1
    31   15   54 1
    32   16   19 1
    33   16   55 1
    34   16   56 1
    35   17   20 ar
    36   17   22 ar
    37   18   21 ar
    38   18   23 ar
    39   19   57 1
    40   19   58 1
    41   20   30 ar
    42   20   59 1
    43   21   31 ar
    44   21   60 1
    45   22   32 ar
    46   22   61 1
    47   23   33 ar
    48   23   62 1
    49   24   25 1
    50   24   26 1
    51   24   29 1
    52   24   63 1
    53   25   27 1
    54   25   28 2
    55   26   34 2
    56   26   40 1
    57   28   37 1
    58   29   38 ar
    59   29   39 ar
    60   30   35 ar
    61   30   64 1
    62   31   36 ar
    63   31   65 1
    64   32   35 ar
    65   32   66 1
    66   33   36 ar
    67   33   67 1
    68   34   41 1
    69   35   69 1
    70   36   70 1
    71   37   71 1
    72   37   72 1
    73   37   73 1
    74   38   42 ar
    75   38   74 1
    76   39   43 ar
    77   39   75 1
    78   41   76 1
    79   41   77 1
    80   41   78 1
    81   42   44 ar
    82   43   44 ar
    83   43   79 1
    84   44   80 1
    85   45   81 1
    86   45   82 1
    87   45   83 1
