@<TRIPOS>MOLECULE
DB09030
   69    73     0     0     0
SMALL
USER_CHARGES

@<TRIPOS>ATOM
      1 F1          9.6266    0.9467   -2.6166 F         1 <0>        -0.2055
      2 O1         -0.6790   -4.8804   -0.9585 O.3       1 <0>        -0.4611
      3 O2         -2.3799   -5.8968    0.1948 O.2       1 <0>        -0.2505
      4 O3         -6.9490    2.6021   -0.5557 O.3       1 <0>        -0.4507
      5 O4         -6.4597    1.4562    1.3738 O.2       1 <0>        -0.2265
      6 N1         -4.9069    1.6919   -0.3341 N.am      1 <0>        -0.2783
      7 N2          3.6799   -0.0138   -0.3571 N.ar      1 <0>        -0.2550
      8 C1         -1.3741   -0.7411    0.0791 C.3       1 <0>        -0.0314
      9 C2         -2.7342   -1.3143    0.5369 C.3       1 <0>        -0.0352
     10 C3         -0.3134   -3.0621    0.4702 C.3       1 <0>         0.0153
     11 C4         -0.2150   -1.5437    0.7248 C.3       1 <0>        -0.0125
     12 C5         -1.7068   -3.6271    0.7383 C.3       1 <0>         0.0634
     13 C6         -2.8541   -2.7941    0.1710 C.3       1 <0>        -0.0365
     14 C7         -1.3004    0.7619    0.4218 C.3       1 <0>        -0.0477
     15 C8         -3.9059   -0.5243   -0.0652 C.3       1 <0>        -0.0313
     16 C9         -0.0341   -3.5897   -0.9379 C.3       1 <0>         0.1044
     17 C10        -3.8165    0.9649    0.2716 C.3       1 <0>         0.0265
     18 C11        -2.4723    1.5429   -0.1678 C.3       1 <0>        -0.0341
     19 C12        -1.6479   -4.9381    0.0032 C.2       1 <0>         0.3109
     20 C13         1.1363   -1.0081    0.3587 C.2       1 <0>        -0.0782
     21 C14         1.4338   -3.8173   -1.2661 C.3       1 <0>        -0.0274
     22 C15         1.9916   -0.4878    1.2521 C.2       1 <0>        -0.0400
     23 C16        -6.1353    1.8759    0.2677 C.2       1 <0>         0.4005
     24 C17         3.3228    0.0571    0.9367 C.ar      1 <0>         0.0636
     25 C18         4.0921    0.5849    1.9488 C.ar      1 <0>        -0.0357
     26 C19        -8.2639    2.8704   -0.0558 C.3       1 <0>         0.0912
     27 C20         5.3423    1.0861    1.6029 C.ar      1 <0>        -0.0506
     28 C21         4.9015    0.4831   -0.6553 C.ar      1 <0>         0.0359
     29 C22         5.7621    1.0380    0.2781 C.ar      1 <0>         0.0004
     30 C23        -9.0269    3.6780   -1.0840 C.3       1 <0>        -0.0305
     31 C24         7.0542    1.5507   -0.1125 C.ar      1 <0>        -0.0137
     32 C25         7.7311    0.9902   -1.1977 C.ar      1 <0>        -0.0187
     33 C26         7.6306    2.6087    0.5934 C.ar      1 <0>        -0.0538
     34 C27         8.9792    1.4858   -1.5754 C.ar      1 <0>         0.1240
     35 C28         8.8786    3.1040    0.2157 C.ar      1 <0>        -0.0585
     36 C29         9.5528    2.5425   -0.8686 C.ar      1 <0>        -0.0264
     37 H1         -1.3031   -0.8355   -1.0139 H         1 <0>         0.0309
     38 H2         -2.7996   -1.2298    1.6312 H         1 <0>         0.0304
     39 H3          0.3808   -3.5663    1.1609 H         1 <0>         0.0350
     40 H4         -0.3391   -1.4235    1.8127 H         1 <0>         0.0350
     41 H5         -1.8367   -3.8034    1.8116 H         1 <0>         0.0418
     42 H6         -3.8047   -3.1955    0.5460 H         1 <0>         0.0276
     43 H7         -2.9014   -2.8987   -0.9216 H         1 <0>         0.0276
     44 H8         -1.2877    0.8953    1.5110 H         1 <0>         0.0269
     45 H9         -0.3725    1.1988    0.0360 H         1 <0>         0.0269
     46 H10        -4.8549   -0.9308    0.3077 H         1 <0>         0.0286
     47 H11        -3.9239   -0.6559   -1.1558 H         1 <0>         0.0286
     48 H12        -0.4969   -2.9765   -1.7191 H         1 <0>         0.0734
     49 H13        -3.9065    1.0784    1.3601 H         1 <0>         0.0499
     50 H14        -2.3991    1.5336   -1.2634 H         1 <0>         0.0283
     51 H15        -2.4003    2.5943    0.1370 H         1 <0>         0.0283
     52 H16         1.3773   -0.9863   -0.6997 H         1 <0>         0.0576
     53 H17         1.5237   -4.3983   -2.1912 H         1 <0>         0.0265
     54 H18         1.9941   -2.8930   -1.4044 H         1 <0>         0.0265
     55 H19         1.9236   -4.4099   -0.4854 H         1 <0>         0.0265
     56 H20        -4.7842    2.0531   -1.2756 H         1 <0>         0.1523
     57 H21         1.7125   -0.4749    2.3032 H         1 <0>         0.0636
     58 H22         3.7608    0.6138    2.9812 H         1 <0>         0.0639
     59 H23        -8.1900    3.4366    0.8794 H         1 <0>         0.0695
     60 H24        -8.7831    1.9240    0.1313 H         1 <0>         0.0695
     61 H25         5.9669    1.4800    2.3998 H         1 <0>         0.0625
     62 H26         5.1337    0.4291   -1.7142 H         1 <0>         0.0836
     63 H27        -9.0930    3.1324   -2.0310 H         1 <0>         0.0262
     64 H28        -8.5098    4.6197   -1.2953 H         1 <0>         0.0262
     65 H29       -10.0385    3.9014   -0.7336 H         1 <0>         0.0262
     66 H30         7.3344    0.1498   -1.7605 H         1 <0>         0.0652
     67 H31         7.1297    3.0943    1.4266 H         1 <0>         0.0624
     68 H32         9.3231    3.9313    0.7615 H         1 <0>         0.0619
     69 H33        10.5240    2.9290   -1.1637 H         1 <0>         0.0646
@<TRIPOS>BOND
     1    1   34 1
     2    2   16 1
     3    2   19 1
     4    3   19 2
     5    4   23 1
     6    4   26 1
     7    5   23 2
     8    6   17 1
     9    6   23 am
    10    6   56 1
    11    7   24 ar
    12    7   28 ar
    13    8    9 1
    14    8   11 1
    15    8   14 1
    16    8   37 1
    17    9   13 1
    18    9   15 1
    19    9   38 1
    20   10   11 1
    21   10   12 1
    22   10   16 1
    23   10   39 1
    24   11   20 1
    25   11   40 1
    26   12   13 1
    27   12   19 1
    28   12   41 1
    29   13   42 1
    30   13   43 1
    31   14   18 1
    32   14   44 1
    33   14   45 1
    34   15   17 1
    35   15   46 1
    36   15   47 1
    37   16   21 1
    38   16   48 1
    39   17   18 1
    40   17   49 1
    41   18   50 1
    42   18   51 1
    43   20   22 2
    44   20   52 1
    45   21   53 1
    46   21   54 1
    47   21   55 1
    48   22   24 1
    49   22   57 1
    50   24   25 ar
    51   25   27 ar
    52   25   58 1
    53   26   30 1
    54   26   59 1
    55   26   60 1
    56   27   29 ar
    57   27   61 1
    58   28   29 ar
    59   28   62 1
    60   29   31 1
    61   30   63 1
    62   30   64 1
    63   30   65 1
    64   31   32 ar
    65   31   33 ar
    66   32   34 ar
    67   32   66 1
    68   33   35 ar
    69   33   67 1
    70   34   36 ar
    71   35   36 ar
    72   35   68 1
    73   36   69 1
