@<TRIPOS>MOLECULE
DB09054
   49    53     0     0     0
SMALL
USER_CHARGES

@<TRIPOS>ATOM
      1 F1          5.4784   -0.1499    1.6140 F         1 <0>        -0.2046
      2 O1          3.4329   -1.6022    1.4513 O.2       1 <0>        -0.2665
      3 N1          1.4677   -0.8695    0.3787 N.am      1 <0>        -0.2628
      4 N2         -1.3976    0.9587   -0.2764 N.pl3     1 <0>        -0.3175
      5 N3          1.3897    1.3453   -0.4873 N.2       1 <0>        -0.2311
      6 N4         -3.4115   -0.2760   -0.6870 N.2       1 <0>        -0.2187
      7 N5         -3.3197    2.9707    1.0382 N.pl3     1 <0>        -0.3404
      8 N6         -5.5272    2.6862    1.1596 N.2       1 <0>        -0.2164
      9 N7         -5.5991    0.5397    0.0206 N.2       1 <0>        -0.2144
     10 C1         -0.5316   -0.0068   -0.8999 C.3       1 <0>         0.0803
     11 C2          0.8433    0.1843   -0.2930 C.2       1 <0>         0.1378
     12 C3         -0.4612    0.2077   -2.4050 C.3       1 <0>        -0.0303
     13 C4          2.7972   -0.7493    0.8361 C.2       1 <0>         0.2691
     14 C5          3.4373    0.5605    0.5923 C.ar      1 <0>         0.1003
     15 C6          2.6963    1.5604   -0.0375 C.ar      1 <0>         0.0810
     16 C7          0.5062   -0.7597   -3.0737 C.3       1 <0>        -0.0632
     17 C8          0.7838   -2.0982    0.6751 C.ar      1 <0>         0.0512
     18 C9         -2.7753    0.8154   -0.1821 C.cat     1 <0>         0.1482
     19 C10        -3.5734    1.7745    0.4297 C.2       1 <0>         0.1253
     20 C11         4.7521    0.8005    1.0090 C.ar      1 <0>         0.1378
     21 C12         3.2883    2.8112   -0.2487 C.ar      1 <0>        -0.0353
     22 C13         0.0576   -2.2122    1.8540 C.ar      1 <0>        -0.0377
     23 C14         0.8562   -3.1570   -0.2211 C.ar      1 <0>        -0.0377
     24 C15        -4.9504    1.6202    0.5177 C.2       1 <0>         0.1825
     25 C16         5.3300    2.0506    0.7920 C.ar      1 <0>        -0.0256
     26 C17         4.5986    3.0561    0.1645 C.ar      1 <0>        -0.0570
     27 C18        -0.6070   -3.4046    2.1412 C.ar      1 <0>        -0.0598
     28 C19         0.1917   -4.3493    0.0659 C.ar      1 <0>        -0.0598
     29 C20        -0.5398   -4.4730    1.2471 C.ar      1 <0>        -0.0616
     30 C21        -4.5203    3.4789    1.4589 C.2       1 <0>         0.0963
     31 C22        -4.7579   -0.3450   -0.5570 C.2       1 <0>         0.1205
     32 H1         -0.9105   -1.0127   -0.7100 H         1 <0>         0.0579
     33 H2         -1.4560    0.0721   -2.8471 H         1 <0>         0.0285
     34 H3         -0.1617    1.2355   -2.6465 H         1 <0>         0.0285
     35 H4         -0.9949    1.8245    0.0661 H         1 <0>         0.1482
     36 H5          0.2089   -1.7970   -2.8941 H         1 <0>         0.0230
     37 H6          0.4990   -0.5984   -4.1569 H         1 <0>         0.0230
     38 H7          1.5359   -0.6234   -2.7313 H         1 <0>         0.0230
     39 H8          2.7307    3.6040   -0.7418 H         1 <0>         0.0639
     40 H9         -0.0012   -1.3842    2.5553 H         1 <0>         0.0638
     41 H10         1.4307   -3.0735   -1.1394 H         1 <0>         0.0638
     42 H11         6.3501    2.2401    1.1127 H         1 <0>         0.0646
     43 H12         5.0482    4.0301   -0.0053 H         1 <0>         0.0619
     44 H13        -2.4140    3.4046    1.1581 H         1 <0>         0.1669
     45 H14        -1.1771   -3.5007    3.0606 H         1 <0>         0.0618
     46 H15         0.2453   -5.1820   -0.6293 H         1 <0>         0.0618
     47 H16        -1.0570   -5.4014    1.4708 H         1 <0>         0.0618
     48 H17        -4.5895    4.4263    1.9742 H         1 <0>         0.1027
     49 H18        -5.2226   -1.2321   -0.9736 H         1 <0>         0.1048
@<TRIPOS>BOND
     1    1   20 1
     2    2   13 2
     3    3   11 1
     4    3   13 am
     5    3   17 1
     6    4   10 1
     7    4   18 1
     8    4   35 1
     9    5   11 2
    10    5   15 1
    11    6   18 1
    12    6   31 2
    13    7   19 2
    14    7   30 1
    15    7   44 1
    16    8   24 1
    17    8   30 2
    18    9   24 2
    19    9   31 1
    20   10   11 1
    21   10   12 1
    22   10   32 1
    23   12   16 1
    24   12   33 1
    25   12   34 1
    26   13   14 1
    27   14   15 ar
    28   14   20 ar
    29   15   21 ar
    30   16   36 1
    31   16   37 1
    32   16   38 1
    33   17   22 ar
    34   17   23 ar
    35   18   19 1
    36   19   24 2
    37   20   25 ar
    38   21   26 ar
    39   21   39 1
    40   22   27 ar
    41   22   40 1
    42   23   28 ar
    43   23   41 1
    44   25   26 ar
    45   25   42 1
    46   26   43 1
    47   27   29 ar
    48   27   45 1
    49   28   29 ar
    50   28   46 1
    51   29   47 1
    52   30   48 1
    53   31   49 1
