@<TRIPOS>MOLECULE
DB09053
   57    61     0     0     0
SMALL
USER_CHARGES

@<TRIPOS>ATOM
      1 O1         -7.5257    1.2696    0.4877 O.2       1 <0>        -0.2706
      2 O2          5.1000    1.5514    1.5377 O.3       1 <0>        -0.4560
      3 N1         -5.2289    1.1812    0.1366 N.am      1 <0>        -0.2960
      4 N2         -1.8847   -0.5176   -0.5896 N.pl3     1 <0>        -0.2411
      5 N3         -0.8952    0.3051   -0.1950 N.2       1 <0>        -0.1683
      6 N4         -2.2569   -2.8563   -1.0946 N.ar      1 <0>        -0.2161
      7 N5         -0.2239   -4.1746   -0.8121 N.ar      1 <0>        -0.2204
      8 N6          1.8490   -3.2161   -0.1183 N.pl3     1 <0>        -0.3425
      9 C1         -3.2699    0.0457   -0.8408 C.3       1 <0>         0.0707
     10 C2         -3.2708    1.0744   -1.9896 C.3       1 <0>        -0.0275
     11 C3         -3.8845    0.6608    0.4284 C.3       1 <0>         0.0374
     12 C4         -4.6708    1.6533   -2.2093 C.3       1 <0>        -0.0352
     13 C5         -5.2561    2.2046   -0.9108 C.3       1 <0>         0.0151
     14 C6         -1.4940   -1.8173   -0.7193 C.ar      1 <0>         0.1641
     15 C7         -0.1514   -1.8476   -0.3851 C.ar      1 <0>         0.0859
     16 C8         -6.4170    0.8028    0.7545 C.2       1 <0>         0.2389
     17 C9          0.1576   -0.5108   -0.0721 C.2       1 <0>         0.1053
     18 C10         0.4864   -3.0825   -0.4407 C.ar      1 <0>         0.1308
     19 C11         1.4311    0.0210    0.3431 C.ar      1 <0>         0.0031
     20 C12        -6.3475   -0.2377    1.7996 C.2       1 <0>        -0.0067
     21 C13        -1.5327   -3.9961   -1.1118 C.ar      1 <0>         0.1204
     22 C14         2.3388    0.4811   -0.6109 C.ar      1 <0>        -0.0490
     23 C15         1.7559    0.0762    1.6985 C.ar      1 <0>        -0.0490
     24 C16        -7.2392   -0.2147    2.7925 C.2       1 <0>        -0.0938
     25 C17         3.5712    0.9963   -0.2096 C.ar      1 <0>        -0.0187
     26 C18         2.9886    0.5915    2.0999 C.ar      1 <0>        -0.0187
     27 C19         3.8961    1.0515    1.1458 C.ar      1 <0>         0.1285
     28 C20         6.2249    1.1392    0.8436 C.ar      1 <0>         0.1284
     29 C21         6.3979   -0.2098    0.5333 C.ar      1 <0>        -0.0193
     30 C22         7.1857    2.0729    0.4549 C.ar      1 <0>        -0.0193
     31 C23         7.5315   -0.6251   -0.1653 C.ar      1 <0>        -0.0583
     32 C24         8.3193    1.6575   -0.2438 C.ar      1 <0>        -0.0583
     33 C25         8.4923    0.3085   -0.5538 C.ar      1 <0>        -0.0615
     34 H1         -3.8766   -0.8171   -1.1452 H         1 <0>         0.0561
     35 H2         -2.9147    0.6048   -2.9142 H         1 <0>         0.0287
     36 H3         -2.5746    1.8924   -1.7650 H         1 <0>         0.0287
     37 H4         -3.8856   -0.0691    1.2393 H         1 <0>         0.0485
     38 H5         -3.2823    1.5080    0.7811 H         1 <0>         0.0485
     39 H6         -4.6313    2.4444   -2.9661 H         1 <0>         0.0281
     40 H7         -5.3264    0.8640   -2.5977 H         1 <0>         0.0281
     41 H8         -6.2765    2.5587   -1.0875 H         1 <0>         0.0465
     42 H9         -4.6687    3.0592   -0.5548 H         1 <0>         0.0465
     43 H10        -5.6197   -1.0356    1.7412 H         1 <0>         0.0663
     44 H11        -2.0714   -4.8908   -1.4050 H         1 <0>         0.1048
     45 H12         2.0988    0.4490   -1.6710 H         1 <0>         0.0625
     46 H13         1.0598   -0.2793    2.4547 H         1 <0>         0.0625
     47 H14         2.2736   -4.1322   -0.1719 H         1 <0>         0.1437
     48 H15         2.4038   -2.4206    0.1613 H         1 <0>         0.1437
     49 H16        -7.9970    0.5556    2.8857 H         1 <0>         0.0536
     50 H17        -7.2185   -0.9856    3.5559 H         1 <0>         0.0536
     51 H18         4.2493    1.3683   -0.9732 H         1 <0>         0.0654
     52 H19         3.2367    0.6308    3.1571 H         1 <0>         0.0654
     53 H20         5.6764   -0.9613    0.8429 H         1 <0>         0.0654
     54 H21         7.0560    3.1248    0.6936 H         1 <0>         0.0654
     55 H22         7.6688   -1.6760   -0.4025 H         1 <0>         0.0619
     56 H23         9.0676    2.3843   -0.5461 H         1 <0>         0.0619
     57 H24         9.3755   -0.0151   -1.0966 H         1 <0>         0.0618
@<TRIPOS>BOND
     1    1   16 2
     2    2   27 1
     3    2   28 1
     4    3   11 1
     5    3   13 1
     6    3   16 am
     7    4    5 1
     8    4    9 1
     9    4   14 2
    10    5   17 1
    11    6   14 ar
    12    6   21 ar
    13    7   18 ar
    14    7   21 ar
    15    8   18 1
    16    8   47 1
    17    8   48 1
    18    9   10 1
    19    9   11 1
    20    9   34 1
    21   10   12 1
    22   10   35 1
    23   10   36 1
    24   11   37 1
    25   11   38 1
    26   12   13 1
    27   12   39 1
    28   12   40 1
    29   13   41 1
    30   13   42 1
    31   14   15 ar
    32   15   17 2
    33   15   18 ar
    34   16   20 1
    35   17   19 1
    36   19   22 ar
    37   19   23 ar
    38   20   24 2
    39   20   43 1
    40   21   44 1
    41   22   25 ar
    42   22   45 1
    43   23   26 ar
    44   23   46 1
    45   24   49 1
    46   24   50 1
    47   25   27 ar
    48   25   51 1
    49   26   27 ar
    50   26   52 1
    51   28   29 ar
    52   28   30 ar
    53   29   31 ar
    54   29   53 1
    55   30   32 ar
    56   30   54 1
    57   31   33 ar
    58   31   55 1
    59   32   33 ar
    60   32   56 1
    61   33   57 1
