@<TRIPOS>MOLECULE
DB09070
   51    54     0     0     0
SMALL
USER_CHARGES

@<TRIPOS>ATOM
      1 O1          4.6392    1.2011    0.7204 O.3       1 <0>        -0.3760
      2 O2         -5.9937    0.9063    1.0718 O.2       1 <0>        -0.2971
      3 C1          1.5365   -0.6100   -0.0500 C.3       1 <0>        -0.0284
      4 C2          2.2240    0.6788    0.4673 C.3       1 <0>         0.0111
      5 C3          0.0540   -0.6743    0.3306 C.3       1 <0>        -0.0282
      6 C4         -0.6763    0.5321   -0.3340 C.3       1 <0>        -0.0163
      7 C5          3.6943    0.4059    0.0191 C.3       1 <0>         0.1317
      8 C6          1.5082    1.8928   -0.1579 C.3       1 <0>        -0.0433
      9 C7          2.4707   -1.7225    0.4161 C.3       1 <0>        -0.0458
     10 C8         -0.0135    1.8673    0.0990 C.3       1 <0>        -0.0456
     11 C9         -0.6484   -2.0046   -0.0015 C.3       1 <0>        -0.0365
     12 C10         3.8830   -1.1030    0.3405 C.3       1 <0>        -0.0118
     13 C11        -2.1866    0.4785   -0.1121 C.2       1 <0>        -0.0661
     14 C12         2.1731    0.8387    2.0162 C.3       1 <0>        -0.0558
     15 C13        -2.0797   -1.9450    0.5645 C.3       1 <0>        -0.0282
     16 C14        -2.8108   -0.6414    0.3187 C.2       1 <0>        -0.0627
     17 C15        -0.6598   -2.3620   -1.4922 C.3       1 <0>        -0.0618
     18 C16        -2.9636    1.7338   -0.4449 C.3       1 <0>        -0.0245
     19 C17         3.9166    0.6372   -1.4223 C.1       1 <0>        -0.0704
     20 C18        -4.2900   -0.7150    0.6040 C.3       1 <0>         0.0272
     21 C19        -4.4541    1.5101   -0.6564 C.3       1 <0>         0.0098
     22 C20        -4.9855    0.6162    0.4295 C.2       1 <0>         0.1376
     23 C21         4.0980    0.8251   -2.5940 C.1       1 <0>        -0.1163
     24 H1          1.5784   -0.6106   -1.1497 H         1 <0>         0.0310
     25 H2         -0.0253   -0.5659    1.4205 H         1 <0>         0.0312
     26 H3         -0.5339    0.4662   -1.4227 H         1 <0>         0.0349
     27 H4          1.6514    1.9139   -1.2443 H         1 <0>         0.0272
     28 H5          1.9302    2.8289    0.2267 H         1 <0>         0.0272
     29 H6          2.3946   -2.6107   -0.2193 H         1 <0>         0.0269
     30 H7          2.2467   -2.0324    1.4429 H         1 <0>         0.0269
     31 H8         -0.2243    2.0639    1.1566 H         1 <0>         0.0271
     32 H9         -0.4516    2.7046   -0.4571 H         1 <0>         0.0271
     33 H10        -0.1267   -2.8195    0.5170 H         1 <0>         0.0304
     34 H11         4.3997   -1.2429    1.2977 H         1 <0>         0.0303
     35 H12         4.4865   -1.6175   -0.4171 H         1 <0>         0.0303
     36 H13         2.6729    0.0169    2.5381 H         1 <0>         0.0236
     37 H14         2.6745    1.7644    2.3224 H         1 <0>         0.0236
     38 H15         1.1560    0.8915    2.4115 H         1 <0>         0.0236
     39 H16        -2.0359   -2.1009    1.6507 H         1 <0>         0.0313
     40 H17        -2.6635   -2.7788    0.1547 H         1 <0>         0.0313
     41 H18        -1.1345   -3.3380   -1.6432 H         1 <0>         0.0233
     42 H19        -1.2133   -1.6351   -2.0935 H         1 <0>         0.0233
     43 H20         0.3557   -2.4336   -1.8923 H         1 <0>         0.0233
     44 H21        -2.8187    2.4557    0.3686 H         1 <0>         0.0314
     45 H22        -2.5636    2.1860   -1.3604 H         1 <0>         0.0314
     46 H23         4.4012    2.1352    0.5900 H         1 <0>         0.2114
     47 H24        -4.7674   -1.4320   -0.0726 H         1 <0>         0.0387
     48 H25        -4.4455   -1.0428    1.6380 H         1 <0>         0.0387
     49 H26        -4.6504    1.0290   -1.6212 H         1 <0>         0.0345
     50 H27        -4.9867    2.4666   -0.6409 H         1 <0>         0.0345
     51 H28         4.2577    0.9919   -3.6335 H         1 <0>         0.1229
@<TRIPOS>BOND
     1    1    7 1
     2    1   46 1
     3    2   22 2
     4    3    4 1
     5    3    5 1
     6    3    9 1
     7    3   24 1
     8    4    7 1
     9    4    8 1
    10    4   14 1
    11    5    6 1
    12    5   11 1
    13    5   25 1
    14    6   10 1
    15    6   13 1
    16    6   26 1
    17    7   12 1
    18    7   19 1
    19    8   10 1
    20    8   27 1
    21    8   28 1
    22    9   12 1
    23    9   29 1
    24    9   30 1
    25   10   31 1
    26   10   32 1
    27   11   15 1
    28   11   17 1
    29   11   33 1
    30   12   34 1
    31   12   35 1
    32   13   16 2
    33   13   18 1
    34   14   36 1
    35   14   37 1
    36   14   38 1
    37   15   16 1
    38   15   39 1
    39   15   40 1
    40   16   20 1
    41   17   41 1
    42   17   42 1
    43   17   43 1
    44   18   21 1
    45   18   44 1
    46   18   45 1
    47   19   23 3
    48   20   22 1
    49   20   47 1
    50   20   48 1
    51   21   22 1
    52   21   49 1
    53   21   50 1
    54   23   51 1
