@<TRIPOS>MOLECULE
DB09534
   72    76     0     0     0
SMALL
USER_CHARGES

@<TRIPOS>ATOM
      1 S1         -3.0525   -3.0100    0.6718 S.o2      1 <0>         0.0807
      2 S2          3.0794   -3.0180   -0.6691 S.o2      1 <0>         0.0807
      3 O1         -2.0157   -0.2492    0.1593 O.2       1 <0>        -0.2917
      4 O2          2.0199   -0.2651   -0.1604 O.2       1 <0>        -0.2917
      5 O3         -3.2518   -4.4832    0.0005 O.3       1 <0>        -0.2539
      6 O4          3.2904   -4.4887    0.0041 O.3       1 <0>        -0.2539
      7 O5         -3.5251   -3.0549    2.0438 O.2       1 <0>        -0.1474
      8 O6         -1.7245   -2.5242    0.3427 O.2       1 <0>        -0.1474
      9 O7          3.5528   -3.0608   -2.0409 O.2       1 <0>        -0.1474
     10 O8          1.7474   -2.5425   -0.3411 O.2       1 <0>        -0.1474
     11 C1         -4.4373   -0.7324    0.1745 C.3       1 <0>         0.0606
     12 C2          4.4453   -0.7284   -0.1742 C.3       1 <0>         0.0606
     13 C3         -5.3977    0.1901   -0.6399 C.3       1 <0>        -0.0137
     14 C4          5.3978    0.2028    0.6393 C.3       1 <0>        -0.0137
     15 C5         -5.1457    1.4173    0.2852 C.3       1 <0>        -0.0064
     16 C6          5.1363    1.4267   -0.2875 C.3       1 <0>        -0.0064
     17 C7         -4.9698   -0.6071    1.6258 C.3       1 <0>        -0.0376
     18 C8          4.9773   -0.6007   -1.6256 C.3       1 <0>        -0.0376
     19 C9         -5.4701    0.8608    1.6925 C.3       1 <0>        -0.0446
     20 C10         5.4657    0.8711   -1.6939 C.3       1 <0>        -0.0446
     21 C11        -3.1725    0.1274    0.1729 C.2       1 <0>         0.1678
     22 C12         3.1736    0.1209   -0.1740 C.2       1 <0>         0.1678
     23 C13        -3.6371    1.5507    0.2310 C.2       1 <0>        -0.0002
     24 C14         3.6267    1.5479   -0.2337 C.2       1 <0>        -0.0002
     25 C15        -4.2344   -2.1464   -0.3133 C.3       1 <0>         0.1057
     26 C16         4.2539   -2.1435    0.3153 C.3       1 <0>         0.1057
     27 C17        -6.8683   -0.2722   -0.6666 C.3       1 <0>        -0.0583
     28 C18        -4.9849    0.4133   -2.1125 C.3       1 <0>        -0.0583
     29 C19         4.9772    0.4356    2.1043 C.3       1 <0>        -0.0583
     30 C20         6.8730   -0.2567    0.6785 C.3       1 <0>        -0.0583
     31 C21        -2.8574    2.6289    0.1956 C.2       1 <0>        -0.0478
     32 C22         2.8275    2.6342   -0.1996 C.2       1 <0>        -0.0478
     33 C23        -1.3845    2.6311    0.0923 C.ar      1 <0>        -0.0246
     34 C24         1.3765    2.6340   -0.0987 C.ar      1 <0>        -0.0246
     35 C25        -0.6275    2.6332    1.2508 C.ar      1 <0>        -0.0540
     36 C26         0.7640    2.6347    1.1547 C.ar      1 <0>        -0.0540
     37 C27        -0.7941    2.6304   -1.1593 C.ar      1 <0>        -0.0540
     38 C28         0.5974    2.6318   -1.2557 C.ar      1 <0>        -0.0540
     39 H1         -5.6913    2.3253    0.0198 H         1 <0>         0.0355
     40 H2          5.6741    2.3396   -0.0230 H         1 <0>         0.0355
     41 H3         -4.1915   -0.7419    2.3844 H         1 <0>         0.0276
     42 H4         -5.7867   -1.3047    1.8380 H         1 <0>         0.0276
     43 H5          4.2006   -0.7431   -2.3844 H         1 <0>         0.0276
     44 H6          5.8005   -1.2917   -1.8360 H         1 <0>         0.0276
     45 H7         -6.5459    0.8914    1.8956 H         1 <0>         0.0272
     46 H8         -4.9699    1.4193    2.4922 H         1 <0>         0.0272
     47 H9          6.5417    0.9090   -1.8949 H         1 <0>         0.0272
     48 H10         4.9624    1.4247   -2.4949 H         1 <0>         0.0272
     49 H11        -3.8620   -2.1666   -1.3426 H         1 <0>         0.0535
     50 H12        -5.1727   -2.7084   -0.2677 H         1 <0>         0.0535
     51 H13         3.8815   -2.1652    1.3447 H         1 <0>         0.0535
     52 H14         5.1968   -2.6980    0.2705 H         1 <0>         0.0535
     53 H15        -7.5055    0.5094   -1.0963 H         1 <0>         0.0235
     54 H16        -7.2807   -0.5163    0.3149 H         1 <0>         0.0235
     55 H17        -6.9802   -1.1705   -1.2845 H         1 <0>         0.0235
     56 H18        -3.9331    0.6829   -2.2449 H         1 <0>         0.0235
     57 H19        -5.5822    1.2173   -2.5576 H         1 <0>         0.0235
     58 H20        -5.1530   -0.4935   -2.7045 H         1 <0>         0.0235
     59 H21         5.5676    1.2466    2.5462 H         1 <0>         0.0235
     60 H22         3.9232    0.6990    2.2332 H         1 <0>         0.0235
     61 H23         5.1485   -0.4650    2.7050 H         1 <0>         0.0235
     62 H24         7.2899   -0.4995   -0.3015 H         1 <0>         0.0235
     63 H25         7.5044    0.5279    1.1106 H         1 <0>         0.0235
     64 H26         6.9826   -1.1539    1.2982 H         1 <0>         0.0235
     65 H27        -3.3118    3.6162    0.2279 H         1 <0>         0.0627
     66 H28         3.2862    3.6195   -0.2339 H         1 <0>         0.0627
     67 H29        -4.0992   -4.9379    0.2189 H         1 <0>         0.2445
     68 H30         4.1414   -4.9367   -0.2133 H         1 <0>         0.2445
     69 H31        -1.0938    2.6330    2.2323 H         1 <0>         0.0624
     70 H32         1.3578    2.6353    2.0656 H         1 <0>         0.0624
     71 H33        -1.3912    2.6278   -2.0673 H         1 <0>         0.0624
     72 H34         1.0600    2.6302   -2.2398 H         1 <0>         0.0624
@<TRIPOS>BOND
     1    1    5 1
     2    1    7 2
     3    1    8 2
     4    1   25 1
     5    2    6 1
     6    2    9 2
     7    2   10 2
     8    2   26 1
     9    3   21 2
    10    4   22 2
    11    5   67 1
    12    6   68 1
    13   11   13 1
    14   11   17 1
    15   11   21 1
    16   11   25 1
    17   12   14 1
    18   12   18 1
    19   12   22 1
    20   12   26 1
    21   13   15 1
    22   13   27 1
    23   13   28 1
    24   14   16 1
    25   14   29 1
    26   14   30 1
    27   15   19 1
    28   15   23 1
    29   15   39 1
    30   16   20 1
    31   16   24 1
    32   16   40 1
    33   17   19 1
    34   17   41 1
    35   17   42 1
    36   18   20 1
    37   18   43 1
    38   18   44 1
    39   19   45 1
    40   19   46 1
    41   20   47 1
    42   20   48 1
    43   21   23 1
    44   22   24 1
    45   23   31 2
    46   24   32 2
    47   25   49 1
    48   25   50 1
    49   26   51 1
    50   26   52 1
    51   27   53 1
    52   27   54 1
    53   27   55 1
    54   28   56 1
    55   28   57 1
    56   28   58 1
    57   29   59 1
    58   29   60 1
    59   29   61 1
    60   30   62 1
    61   30   63 1
    62   30   64 1
    63   31   33 1
    64   31   65 1
    65   32   34 1
    66   32   66 1
    67   33   35 ar
    68   33   37 ar
    69   34   36 ar
    70   34   38 ar
    71   35   36 ar
    72   35   69 1
    73   36   70 1
    74   37   38 ar
    75   37   71 1
    76   38   72 1
