@<TRIPOS>MOLECULE
DB09299
   62    64     0     0     0
SMALL
USER_CHARGES

@<TRIPOS>ATOM
      1 P1          0.4989    0.2093    1.3365 P.3       1 <0>         0.3447
      2 O1         -1.0984   -1.6912    0.6426 O.3       1 <0>        -0.3629
      3 O2         -0.8807    1.0565    1.2621 O.3       1 <0>        -0.4306
      4 O3          1.3657    0.6635    2.4819 O.2       1 <0>        -0.2565
      5 O4          4.6238   -0.1993    0.4000 O.3       1 <0>        -0.4608
      6 O5          3.5002    1.6724   -0.3384 O.2       1 <0>        -0.2491
      7 N1         -3.8255   -2.2150   -0.2514 N.pl3     1 <0>        -0.3124
      8 N2          1.1640    0.1674   -0.1793 N.pl3     1 <0>        -0.2209
      9 N3         -5.7649   -1.3171    0.3148 N.2       1 <0>        -0.2306
     10 N4         -2.9344   -0.4751   -1.6874 N.2       1 <0>        -0.2160
     11 N5         -4.4944    1.3939   -1.8571 N.2       1 <0>        -0.2188
     12 N6         -6.5997    1.4175   -0.7196 N.pl3     1 <0>        -0.3413
     13 C1         -1.6893   -2.9752    0.7839 C.3       1 <0>         0.0746
     14 C2         -2.7378   -3.1910   -0.3110 C.3       1 <0>         0.0521
     15 C3         -0.1291   -1.4488    1.6537 C.3       1 <0>         0.1486
     16 C4          2.4289   -0.5193   -0.3837 C.3       1 <0>         0.1109
     17 C5         -0.5723   -4.0039    0.6754 C.3       1 <0>        -0.0370
     18 C6         -3.8619   -1.0187   -0.8848 C.2       1 <0>         0.1654
     19 C7          2.5017   -1.0503   -1.8089 C.3       1 <0>        -0.0389
     20 C8         -4.9762   -2.3622    0.4550 C.cat     1 <0>         0.0984
     21 C9         -5.0807   -0.4696   -0.5200 C.2       1 <0>         0.1472
     22 C10         3.5504    0.4685   -0.1218 C.2       1 <0>         0.3247
     23 C11        -0.9650    2.4037    1.0350 C.ar      1 <0>         0.1290
     24 C12         5.9059    0.3624    0.1009 C.3       1 <0>         0.0975
     25 C13        -5.3857    0.7850   -1.0383 C.2       1 <0>         0.1472
     26 C14         0.1966    3.1455    0.8477 C.ar      1 <0>        -0.0195
     27 C15        -2.2117    3.0191    0.9940 C.ar      1 <0>        -0.0195
     28 C16         6.9864   -0.4694    0.7748 C.3       1 <0>        -0.0280
     29 C17         6.0897    0.4152   -1.4081 C.3       1 <0>        -0.0280
     30 C18        -3.3412    0.7357   -2.1268 C.2       1 <0>         0.1205
     31 C19         0.1106    4.5185    0.6171 C.ar      1 <0>        -0.0583
     32 C20        -2.2977    4.3921    0.7632 C.ar      1 <0>        -0.0583
     33 C21        -1.1364    5.1418    0.5748 C.ar      1 <0>        -0.0615
     34 H1         -2.1754   -3.0466    1.7653 H         1 <0>         0.0611
     35 H2         -2.2895   -3.0995   -1.3076 H         1 <0>         0.0518
     36 H3         -3.1929   -4.1853   -0.2351 H         1 <0>         0.0518
     37 H4          0.7226   -2.1300    1.6127 H         1 <0>         0.0687
     38 H5         -0.5954   -1.4842    2.6433 H         1 <0>         0.0687
     39 H6          2.5122   -1.3595    0.3138 H         1 <0>         0.0578
     40 H7          0.5128   -0.0708   -0.9269 H         1 <0>         0.1333
     41 H8          0.1215   -3.7677   -0.1392 H         1 <0>         0.0255
     42 H9         -0.9833   -5.0038    0.4961 H         1 <0>         0.0255
     43 H10         0.0060   -4.0812    1.6018 H         1 <0>         0.0255
     44 H11         1.6943   -1.7632   -2.0094 H         1 <0>         0.0250
     45 H12         3.4529   -1.5667   -1.9783 H         1 <0>         0.0250
     46 H13         2.4378   -0.2407   -2.5453 H         1 <0>         0.0250
     47 H14        -5.1940   -3.2370    1.0524 H         1 <0>         0.1029
     48 H15         5.9516    1.3768    0.5165 H         1 <0>         0.0728
     49 H16         1.1870    2.7085    0.8776 H         1 <0>         0.0654
     50 H17        -3.1184    2.4388    1.1398 H         1 <0>         0.0654
     51 H18         7.9830   -0.0586    0.5865 H         1 <0>         0.0265
     52 H19         6.8208   -0.5043    1.8569 H         1 <0>         0.0265
     53 H20         6.9600   -1.5053    0.4195 H         1 <0>         0.0265
     54 H21         5.3915    1.1039   -1.8928 H         1 <0>         0.0265
     55 H22         5.9256   -0.5711   -1.8564 H         1 <0>         0.0265
     56 H23         7.1016    0.7456   -1.6652 H         1 <0>         0.0265
     57 H24        -2.6502    1.2532   -2.7835 H         1 <0>         0.1048
     58 H25        -7.2662    0.9656   -0.1081 H         1 <0>         0.1438
     59 H26        -6.7978    2.3297   -1.1078 H         1 <0>         0.1438
     60 H27         1.0145    5.1029    0.4716 H         1 <0>         0.0619
     61 H28        -3.2689    4.8772    0.7298 H         1 <0>         0.0619
     62 H29        -1.2035    6.2108    0.3953 H         1 <0>         0.0618
@<TRIPOS>BOND
     1    1    3 1
     2    1    4 2
     3    1    8 1
     4    1   15 1
     5    2   13 1
     6    2   15 1
     7    3   23 1
     8    5   22 1
     9    5   24 1
    10    6   22 2
    11    7   14 1
    12    7   18 1
    13    7   20 2
    14    8   16 1
    15    8   40 1
    16    9   20 1
    17    9   21 2
    18   10   18 2
    19   10   30 1
    20   11   25 1
    21   11   30 2
    22   12   25 1
    23   12   58 1
    24   12   59 1
    25   13   14 1
    26   13   17 1
    27   13   34 1
    28   14   35 1
    29   14   36 1
    30   15   37 1
    31   15   38 1
    32   16   19 1
    33   16   22 1
    34   16   39 1
    35   17   41 1
    36   17   42 1
    37   17   43 1
    38   18   21 1
    39   19   44 1
    40   19   45 1
    41   19   46 1
    42   20   47 1
    43   21   25 2
    44   23   26 ar
    45   23   27 ar
    46   24   28 1
    47   24   29 1
    48   24   48 1
    49   26   31 ar
    50   26   49 1
    51   27   32 ar
    52   27   50 1
    53   28   51 1
    54   28   52 1
    55   28   53 1
    56   29   54 1
    57   29   55 1
    58   29   56 1
    59   30   57 1
    60   31   33 ar
    61   31   60 1
    62   32   33 ar
    63   32   61 1
    64   33   62 1
