@<TRIPOS>MOLECULE
DB09185
   36    37     0     0     0
SMALL
USER_CHARGES

@<TRIPOS>ATOM
      1 O1         -1.6780   -0.3381   -0.1461 O.3       1 <0>        -0.3707
      2 O2          0.5061    1.0915   -1.0411 O.3       1 <0>        -0.4857
      3 O3          1.7741   -1.3616   -0.7240 O.3       1 <0>        -0.4886
      4 N1         -4.1463    1.0008    0.3112 N.3       1 <0>        -0.3112
      5 C1         -1.7987    1.0640   -0.4136 C.3       1 <0>         0.1050
      6 C2         -2.8610    1.6767    0.5035 C.3       1 <0>         0.0255
      7 C3         -4.0001   -0.4373    0.5423 C.3       1 <0>         0.0195
      8 C4         -0.4367    1.7017   -0.1770 C.3       1 <0>         0.1170
      9 C5         -2.9193   -1.0102   -0.3657 C.3       1 <0>         0.0607
     10 C6          1.8047    1.0292   -0.6010 C.ar      1 <0>         0.1620
     11 C7          2.4309   -0.2014   -0.4445 C.ar      1 <0>         0.1619
     12 C8          2.4786    2.2107   -0.3150 C.ar      1 <0>        -0.0163
     13 C9          3.7507   -0.2514    0.0045 C.ar      1 <0>        -0.0163
     14 C10         3.7982    2.1604    0.1342 C.ar      1 <0>        -0.0581
     15 C11         4.4343    0.9295    0.2939 C.ar      1 <0>        -0.0581
     16 C12         1.6233   -2.2945    0.3442 C.3       1 <0>         0.0870
     17 C13         0.8607   -3.5014   -0.1593 C.3       1 <0>        -0.0307
     18 H1         -2.0703    1.1865   -1.4708 H         1 <0>         0.0643
     19 H2         -2.5659    1.5853    1.5562 H         1 <0>         0.0450
     20 H3         -2.9801    2.7445    0.2903 H         1 <0>         0.0450
     21 H4         -4.9555   -0.9376    0.3542 H         1 <0>         0.0446
     22 H5         -3.7417   -0.6078    1.5942 H         1 <0>         0.0446
     23 H6         -0.1404    1.5542    0.8702 H         1 <0>         0.0723
     24 H7         -0.4762    2.7765   -0.3869 H         1 <0>         0.0723
     25 H8         -2.7665   -2.0704   -0.1402 H         1 <0>         0.0572
     26 H9         -3.1947   -0.9333   -1.4244 H         1 <0>         0.0572
     27 H10        -4.4570    1.1506   -0.6492 H         1 <0>         0.1221
     28 H11         1.9977    3.1762   -0.4430 H         1 <0>         0.0655
     29 H12         4.2697   -1.1989    0.1181 H         1 <0>         0.0655
     30 H13         4.3315    3.0800    0.3568 H         1 <0>         0.0619
     31 H14         5.4633    0.8910    0.6392 H         1 <0>         0.0619
     32 H15         2.5995   -2.6243    0.7152 H         1 <0>         0.0694
     33 H16         1.0711   -1.8234    1.1659 H         1 <0>         0.0694
     34 H17         0.7200   -4.2363    0.6384 H         1 <0>         0.0262
     35 H18        -0.1211   -3.2043   -0.5426 H         1 <0>         0.0262
     36 H19         1.3951   -3.9771   -0.9882 H         1 <0>         0.0262
@<TRIPOS>BOND
     1    1    5 1
     2    1    9 1
     3    2    8 1
     4    2   10 1
     5    3   11 1
     6    3   16 1
     7    4    6 1
     8    4    7 1
     9    4   27 1
    10    5    6 1
    11    5    8 1
    12    5   18 1
    13    6   19 1
    14    6   20 1
    15    7    9 1
    16    7   21 1
    17    7   22 1
    18    8   23 1
    19    8   24 1
    20    9   25 1
    21    9   26 1
    22   10   11 ar
    23   10   12 ar
    24   11   13 ar
    25   12   14 ar
    26   12   28 1
    27   13   15 ar
    28   13   29 1
    29   14   15 ar
    30   14   30 1
    31   15   31 1
    32   16   17 1
    33   16   32 1
    34   16   33 1
    35   17   34 1
    36   17   35 1
    37   17   36 1
