@<TRIPOS>MOLECULE
DB09047
   48    52     0     0     0
SMALL
USER_CHARGES

@<TRIPOS>ATOM
      1 F1          0.8445    3.2738    0.4664 F         1 <0>        -0.2035
      2 O1          4.8669    0.1957   -1.5504 O.3       1 <0>        -0.3722
      3 O2         -4.1868    3.1723    0.4252 O.2       1 <0>        -0.2863
      4 O3         -6.5542    2.3946   -0.3729 O.3       1 <0>        -0.4770
      5 O4         -7.0860    0.3084    0.3987 O.2       1 <0>        -0.2449
      6 N1          1.6578    0.7160    0.0033 N.pl3     1 <0>        -0.3225
      7 N2         -3.0364   -0.6773   -0.2674 N.pl3     1 <0>        -0.3416
      8 N3          4.9600   -0.2105    1.2983 N.3       1 <0>        -0.3074
      9 N4          0.2785   -2.3746   -0.5683 N.1       1 <0>        -0.1907
     10 C1         -2.7896   -2.1173   -0.5277 C.3       1 <0>         0.0347
     11 C2          3.7329   -0.2099    0.5174 C.3       1 <0>         0.0513
     12 C3          3.8984    0.7333   -0.6658 C.3       1 <0>         0.0910
     13 C4         -2.5403   -3.0608    0.5984 C.3       1 <0>        -0.0302
     14 C5         -3.8184   -3.1392   -0.1840 C.3       1 <0>        -0.0302
     15 C6          2.4640    0.3291    1.1709 C.3       1 <0>         0.0303
     16 C7          2.4759    0.7888   -1.2155 C.3       1 <0>         0.0401
     17 C8          0.3104    0.9982    0.0490 C.ar      1 <0>         0.0851
     18 C9         -2.0242    0.3077   -0.0851 C.ar      1 <0>         0.0726
     19 C10         6.0545   -0.6728    0.4282 C.3       1 <0>         0.0198
     20 C11         6.1353    0.1374   -0.8753 C.3       1 <0>         0.0606
     21 C12        -0.6540    0.0035   -0.1355 C.ar      1 <0>         0.0996
     22 C13        -2.3940    1.6485    0.1572 C.ar      1 <0>         0.0501
     23 C14        -4.3661   -0.3083   -0.2051 C.2       1 <0>         0.0232
     24 C15        -0.0750    2.3143    0.2874 C.ar      1 <0>         0.1464
     25 C16        -1.4267    2.6441    0.3422 C.ar      1 <0>        -0.0117
     26 C17        -4.8235    0.9299    0.0180 C.2       1 <0>         0.1220
     27 C18        -3.8328    2.0181    0.2189 C.2       1 <0>         0.2035
     28 C19        -0.1372   -1.3145   -0.3755 C.1       1 <0>         0.1032
     29 C20        -6.2714    1.1432    0.0470 C.2       1 <0>         0.3420
     30 H1         -2.3246   -2.2838   -1.4945 H         1 <0>         0.0528
     31 H2          3.5370   -1.2333    0.1620 H         1 <0>         0.0502
     32 H3          4.2001    1.7431   -0.3493 H         1 <0>         0.0628
     33 H4         -1.8349   -3.8707    0.4607 H         1 <0>         0.0286
     34 H5         -2.5923   -2.6819    1.6120 H         1 <0>         0.0286
     35 H6         -4.7091   -2.9347    0.3960 H         1 <0>         0.0286
     36 H7         -3.9383   -3.9774   -0.8623 H         1 <0>         0.0286
     37 H8          1.9735   -0.4354    1.7825 H         1 <0>         0.0480
     38 H9          2.6632    1.2102    1.7920 H         1 <0>         0.0480
     39 H10         2.3080    1.7197   -1.7678 H         1 <0>         0.0490
     40 H11         2.2647   -0.0530   -1.8844 H         1 <0>         0.0490
     41 H12         4.8665   -0.8392    2.0951 H         1 <0>         0.1224
     42 H13         5.8945   -1.7314    0.1880 H         1 <0>         0.0447
     43 H14         7.0045   -0.5993    0.9675 H         1 <0>         0.0447
     44 H15         6.4805    1.1602   -0.6801 H         1 <0>         0.0572
     45 H16         6.8526   -0.3280   -1.5587 H         1 <0>         0.0572
     46 H17        -5.0835   -1.0902   -0.4186 H         1 <0>         0.0819
     47 H18        -1.7070    3.6769    0.5294 H         1 <0>         0.0654
     48 H19        -7.5182    2.5762   -0.3675 H         1 <0>         0.2954
@<TRIPOS>BOND
     1    1   24 1
     2    2   12 1
     3    2   20 1
     4    3   27 2
     5    4   29 1
     6    4   48 1
     7    5   29 2
     8    6   15 1
     9    6   16 1
    10    6   17 1
    11    7   10 1
    12    7   18 1
    13    7   23 2
    14    8   11 1
    15    8   19 1
    16    8   41 1
    17    9   28 3
    18   10   13 1
    19   10   14 1
    20   10   30 1
    21   11   12 1
    22   11   15 1
    23   11   31 1
    24   12   16 1
    25   12   32 1
    26   13   14 1
    27   13   33 1
    28   13   34 1
    29   14   35 1
    30   14   36 1
    31   15   37 1
    32   15   38 1
    33   16   39 1
    34   16   40 1
    35   17   21 ar
    36   17   24 ar
    37   18   21 ar
    38   18   22 ar
    39   19   20 1
    40   19   42 1
    41   19   43 1
    42   20   44 1
    43   20   45 1
    44   21   28 1
    45   22   25 ar
    46   22   27 1
    47   23   26 1
    48   23   46 1
    49   24   25 ar
    50   25   47 1
    51   26   27 1
    52   26   29 1
