@<TRIPOS>MOLECULE
DB09128
   58    62     0     0     0
SMALL
USER_CHARGES

@<TRIPOS>ATOM
      1 S1          9.5099   -0.8512   -0.4011 S.3       1 <0>        -0.0966
      2 O1         -4.0999   -0.8154   -1.0140 O.3       1 <0>        -0.4919
      3 O2        -10.9138   -1.3813    0.9517 O.2       1 <0>        -0.2679
      4 N1          1.8931   -0.5636    0.4801 N.3       1 <0>        -0.2994
      5 N2          4.6104    0.2656    0.1845 N.pl3     1 <0>        -0.3270
      6 N3         -8.7077   -1.2168    0.3133 N.am      1 <0>        -0.3220
      7 C1          2.9891   -1.5010    0.7549 C.3       1 <0>         0.0147
      8 C2          2.2776    0.3509   -0.6019 C.3       1 <0>         0.0147
      9 C3          4.2562   -0.7548    1.1791 C.3       1 <0>         0.0250
     10 C4          3.5216    1.1586   -0.2236 C.3       1 <0>         0.0250
     11 C5          0.6733   -1.2898    0.1289 C.3       1 <0>        -0.0009
     12 C6         -0.4824   -0.3139   -0.0855 C.3       1 <0>        -0.0371
     13 C7          5.9321    0.7241    0.1551 C.ar      1 <0>         0.0381
     14 C8         -1.7701   -1.0532   -0.4450 C.3       1 <0>        -0.0175
     15 C9          7.0415   -0.1505   -0.0828 C.ar      1 <0>         0.0102
     16 C10         6.1970    2.0958    0.3659 C.ar      1 <0>        -0.0400
     17 C11        -2.9195   -0.0876   -0.7024 C.3       1 <0>         0.0896
     18 C12         8.3369    0.3758   -0.0983 C.ar      1 <0>         0.0211
     19 C13         7.0530   -1.5655   -0.3236 C.2       1 <0>        -0.0452
     20 C14         7.4917    2.5946    0.3461 C.ar      1 <0>        -0.0589
     21 C15         8.5770    1.7473    0.1149 C.ar      1 <0>        -0.0473
     22 C16         8.3194   -2.0662   -0.5111 C.2       1 <0>        -0.0231
     23 C17        -5.2933   -0.2295   -0.6811 C.ar      1 <0>         0.1225
     24 C18        -6.3838   -1.0281   -0.3568 C.ar      1 <0>         0.0040
     25 C19        -7.5950   -0.4223   -0.0179 C.ar      1 <0>         0.0526
     26 C20        -5.3982    1.1575   -0.6710 C.ar      1 <0>        -0.0193
     27 C21        -7.7166    0.9721   -0.0033 C.ar      1 <0>        -0.0012
     28 C22        -6.6108    1.7616   -0.3318 C.ar      1 <0>        -0.0492
     29 C23        -9.0019    1.5660    0.3571 C.2       1 <0>        -0.0475
     30 C24        -9.9380   -0.6932    0.6596 C.2       1 <0>         0.2492
     31 C25       -10.0470    0.7913    0.6689 C.2       1 <0>         0.0034
     32 H1          3.2051   -2.1177   -0.1279 H         1 <0>         0.0442
     33 H2          2.7051   -2.1807    1.5673 H         1 <0>         0.0442
     34 H3          2.4638   -0.2011   -1.5329 H         1 <0>         0.0442
     35 H4          1.5120    1.1026   -0.8079 H         1 <0>         0.0442
     36 H5          5.0496   -1.4844    1.3575 H         1 <0>         0.0476
     37 H6          4.0816   -0.2562    2.1423 H         1 <0>         0.0476
     38 H7          3.2767    1.8478    0.5949 H         1 <0>         0.0476
     39 H8          3.8169    1.7560   -1.0956 H         1 <0>         0.0476
     40 H9          0.8205   -1.9014   -0.7710 H         1 <0>         0.0427
     41 H10         0.4050   -1.9720    0.9454 H         1 <0>         0.0427
     42 H11        -0.2922    0.3731   -0.9145 H         1 <0>         0.0279
     43 H12        -0.6400    0.2894    0.8171 H         1 <0>         0.0279
     44 H13        -1.6174   -1.6771   -1.3347 H         1 <0>         0.0298
     45 H14        -2.0490   -1.7434    0.3611 H         1 <0>         0.0298
     46 H15         5.3919    2.7987    0.5661 H         1 <0>         0.0636
     47 H16        -2.6731    0.5684   -1.5456 H         1 <0>         0.0696
     48 H17        -3.0488    0.5198    0.2031 H         1 <0>         0.0696
     49 H18         6.1763   -2.1969   -0.3885 H         1 <0>         0.0629
     50 H19         7.6658    3.6538    0.5152 H         1 <0>         0.0618
     51 H20         9.5872    2.1466    0.1020 H         1 <0>         0.0629
     52 H21         8.5987   -3.0904   -0.7147 H         1 <0>         0.0694
     53 H22        -6.2888   -2.1106   -0.3679 H         1 <0>         0.0675
     54 H23        -4.5740    1.8080   -0.9474 H         1 <0>         0.0654
     55 H24        -6.6817    2.8465   -0.3337 H         1 <0>         0.0625
     56 H25        -8.5951   -2.2265    0.2959 H         1 <0>         0.1689
     57 H26        -9.0933    2.6467    0.3677 H         1 <0>         0.0626
     58 H27       -11.0044    1.2236    0.9377 H         1 <0>         0.0672
@<TRIPOS>BOND
     1    1   18 1
     2    1   22 1
     3    2   17 1
     4    2   23 1
     5    3   30 2
     6    4    7 1
     7    4    8 1
     8    4   11 1
     9    5    9 1
    10    5   10 1
    11    5   13 1
    12    6   25 1
    13    6   30 am
    14    6   56 1
    15    7    9 1
    16    7   32 1
    17    7   33 1
    18    8   10 1
    19    8   34 1
    20    8   35 1
    21    9   36 1
    22    9   37 1
    23   10   38 1
    24   10   39 1
    25   11   12 1
    26   11   40 1
    27   11   41 1
    28   12   14 1
    29   12   42 1
    30   12   43 1
    31   13   15 ar
    32   13   16 ar
    33   14   17 1
    34   14   44 1
    35   14   45 1
    36   15   18 ar
    37   15   19 1
    38   16   20 ar
    39   16   46 1
    40   17   47 1
    41   17   48 1
    42   18   21 ar
    43   19   22 2
    44   19   49 1
    45   20   21 ar
    46   20   50 1
    47   21   51 1
    48   22   52 1
    49   23   24 ar
    50   23   26 ar
    51   24   25 ar
    52   24   53 1
    53   25   27 ar
    54   26   28 ar
    55   26   54 1
    56   27   28 ar
    57   27   29 1
    58   28   55 1
    59   29   31 2
    60   29   57 1
    61   30   31 1
    62   31   58 1
