@<TRIPOS>MOLECULE
DB09510
    8     7     0     0     0
SMALL
USER_CHARGES

@<TRIPOS>ATOM
      1 O1         -0.0000    1.7948   -0.0000 O.2       1 <0>        -0.2533
      2 N1          1.1484   -0.1989   -0.0001 N.am      1 <0>        -0.3135
      3 N2         -1.1484   -0.1989   -0.0001 N.am      1 <0>        -0.3135
      4 C1          0.0001    0.5655    0.0003 C.2       1 <0>         0.2945
      5 H1          1.1122   -1.2127    0.0001 H         1 <0>         0.1465
      6 H2          2.0671    0.2315   -0.0001 H         1 <0>         0.1465
      7 H3         -2.0670    0.2315   -0.0001 H         1 <0>         0.1465
      8 H4         -1.1123   -1.2127   -0.0000 H         1 <0>         0.1465
@<TRIPOS>BOND
     1    1    4 2
     2    2    4 am
     3    2    5 1
     4    2    6 1
     5    3    4 am
     6    3    7 1
     7    3    8 1
