@<TRIPOS>MOLECULE
DB09357
   33    32     0     0     0
SMALL
USER_CHARGES

@<TRIPOS>ATOM
      1 O1         -1.2253   -2.3201   -0.1803 O.3       1 <0>        -0.3820
      2 O2         -3.0495    2.1535    0.5736 O.3       1 <0>        -0.3944
      3 O3          0.3039   -0.8470   -1.8535 O.2       1 <0>        -0.2730
      4 O4          5.0983   -1.0023    0.8449 O.3       1 <0>        -0.3950
      5 N1          1.1107    0.3287   -0.0232 N.am      1 <0>        -0.3131
      6 C1         -2.1868   -0.1075    0.1822 C.3       1 <0>         0.0227
      7 C2         -0.9075   -0.9943    0.2351 C.3       1 <0>         0.1380
      8 C3         -1.8790    1.3447    0.6225 C.3       1 <0>         0.0521
      9 C4         -3.2414   -0.7068    1.1432 C.3       1 <0>        -0.0549
     10 C5         -2.7993   -0.1041   -1.2327 C.3       1 <0>        -0.0549
     11 C6          0.2251   -0.5172   -0.6716 C.2       1 <0>         0.2423
     12 C7          2.2489    0.9295   -0.6796 C.3       1 <0>         0.0137
     13 C8          3.5002    0.0664   -0.5836 C.3       1 <0>        -0.0141
     14 C9          3.9189   -0.2088    0.8556 C.3       1 <0>         0.0456
     15 H1         -0.5397   -1.0634    1.2657 H         1 <0>         0.0696
     16 H2         -1.1309    1.8183   -0.0206 H         1 <0>         0.0563
     17 H3         -1.5007    1.3655    1.6501 H         1 <0>         0.0563
     18 H4         -3.5109   -1.7302    0.8596 H         1 <0>         0.0237
     19 H5         -4.1664   -0.1193    1.1449 H         1 <0>         0.0237
     20 H6         -2.8632   -0.7336    2.1714 H         1 <0>         0.0237
     21 H7         -3.7429    0.4525   -1.2612 H         1 <0>         0.0237
     22 H8         -3.0347   -1.1133   -1.5853 H         1 <0>         0.0237
     23 H9         -2.1265    0.3618   -1.9601 H         1 <0>         0.0237
     24 H10         0.9641    0.5463    0.9580 H         1 <0>         0.1488
     25 H11         2.4190    1.9020   -0.2058 H         1 <0>         0.0463
     26 H12         2.0020    1.1067   -1.7321 H         1 <0>         0.0463
     27 H13        -1.4001   -2.3156   -1.1358 H         1 <0>         0.2105
     28 H14         3.3397   -0.8898   -1.0975 H         1 <0>         0.0302
     29 H15         4.3230    0.5578   -1.1172 H         1 <0>         0.0302
     30 H16        -3.2167    2.3769   -0.3574 H         1 <0>         0.2094
     31 H17         4.1261    0.7191    1.3981 H         1 <0>         0.0557
     32 H18         3.1497   -0.7647    1.3992 H         1 <0>         0.0557
     33 H19         5.7920   -0.4917    0.3934 H         1 <0>         0.2094
@<TRIPOS>BOND
     1    1    7 1
     2    1   27 1
     3    2    8 1
     4    2   30 1
     5    3   11 2
     6    4   14 1
     7    4   33 1
     8    5   11 am
     9    5   12 1
    10    5   24 1
    11    6    7 1
    12    6    8 1
    13    6    9 1
    14    6   10 1
    15    7   11 1
    16    7   15 1
    17    8   16 1
    18    8   17 1
    19    9   18 1
    20    9   19 1
    21    9   20 1
    22   10   21 1
    23   10   22 1
    24   10   23 1
    25   12   13 1
    26   12   25 1
    27   12   26 1
    28   13   14 1
    29   13   28 1
    30   13   29 1
    31   14   31 1
    32   14   32 1
