@<TRIPOS>MOLECULE
DB09081
   60    60     0     0     0
SMALL
USER_CHARGES

@<TRIPOS>ATOM
      1 O1        -11.6008    0.3836   -0.0179 O.3       1 <0>        -0.3950
      2 O2          7.1078    2.3988   -0.6724 O.3       1 <0>        -0.4883
      3 O3          4.7324    1.4612   -1.6876 O.2       1 <0>        -0.2836
      4 O4          8.4739    0.7602    1.1166 O.3       1 <0>        -0.4883
      5 O5          7.3620   -1.6382    1.7444 O.2       1 <0>        -0.2836
      6 C1         -1.6061   -0.7058   -0.6492 C.3       1 <0>        -0.0531
      7 C2         -2.7672   -0.1259    0.1617 C.3       1 <0>        -0.0531
      8 C3         -0.2566   -0.2785   -0.0669 C.3       1 <0>        -0.0530
      9 C4         -4.1455   -0.4594   -0.4190 C.3       1 <0>        -0.0531
     10 C5          0.9064   -0.8248   -0.8981 C.3       1 <0>        -0.0528
     11 C6         -5.3007    0.1849    0.3511 C.3       1 <0>        -0.0531
     12 C7          2.2560   -0.4236   -0.2941 C.3       1 <0>        -0.0489
     13 C8         -6.6803   -0.1502   -0.2268 C.3       1 <0>        -0.0530
     14 C9          3.4500   -0.9247   -1.1101 C.3       1 <0>        -0.0236
     15 C10        -7.8770    0.5119    0.4629 C.3       1 <0>        -0.0510
     16 C11         4.7702   -0.5983   -0.4963 C.2       1 <0>         0.0097
     17 C12        -9.2232    0.1211   -0.1441 C.3       1 <0>        -0.0297
     18 C13         5.4448   -1.3902    0.3580 C.2       1 <0>         0.0069
     19 C14         5.3211    0.7333   -0.8921 C.2       1 <0>         0.2275
     20 C15       -10.3817    0.7715    0.6004 C.3       1 <0>         0.0442
     21 C16         6.7421   -0.9386    0.9470 C.2       1 <0>         0.2273
     22 C17         6.6093    1.1643   -0.3057 C.2       1 <0>         0.2128
     23 C18         5.0122   -2.7647    0.7923 C.3       1 <0>        -0.0356
     24 C19         7.2714    0.3853    0.5516 C.2       1 <0>         0.2128
     25 C20         6.6423    3.4068    0.2028 C.3       1 <0>         0.0791
     26 C21         9.5583    0.3374    0.3136 C.3       1 <0>         0.0791
     27 H1         -1.6810   -0.3648   -1.6887 H         1 <0>         0.0265
     28 H2         -1.6771   -1.8000   -0.6612 H         1 <0>         0.0265
     29 H3         -2.6599    0.9649    0.2118 H         1 <0>         0.0265
     30 H4         -2.7119   -0.4966    1.1927 H         1 <0>         0.0265
     31 H5         -0.1735   -0.6387    0.9658 H         1 <0>         0.0265
     32 H6         -0.1990    0.8163   -0.0335 H         1 <0>         0.0265
     33 H7         -4.1845   -0.1279   -1.4640 H         1 <0>         0.0265
     34 H8         -4.2774   -1.5483   -0.4272 H         1 <0>         0.0265
     35 H9          0.8413   -1.9182   -0.9518 H         1 <0>         0.0265
     36 H10         0.8363   -0.4446   -1.9244 H         1 <0>         0.0265
     37 H11        -5.2642   -0.1385    1.3986 H         1 <0>         0.0265
     38 H12        -5.1697    1.2739    0.3514 H         1 <0>         0.0265
     39 H13         2.3197   -0.8181    0.7282 H         1 <0>         0.0268
     40 H14         2.3036    0.6698   -0.2122 H         1 <0>         0.0268
     41 H15        -6.8150   -1.2390   -0.1960 H         1 <0>         0.0265
     42 H16        -6.6928    0.1314   -1.2875 H         1 <0>         0.0265
     43 H17         3.3890   -0.5184   -2.1283 H         1 <0>         0.0314
     44 H18         3.3543   -2.0063   -1.2621 H         1 <0>         0.0314
     45 H19        -7.7584    1.6013    0.4143 H         1 <0>         0.0266
     46 H20        -7.8661    0.2399    1.5256 H         1 <0>         0.0266
     47 H21        -9.3454   -0.9689   -0.1255 H         1 <0>         0.0287
     48 H22        -9.2590    0.4093   -1.2020 H         1 <0>         0.0287
     49 H23       -10.4037    0.4498    1.6465 H         1 <0>         0.0557
     50 H24       -10.3055    1.8629    0.5644 H         1 <0>         0.0557
     51 H25         5.0118   -2.8354    1.8857 H         1 <0>         0.0279
     52 H26         4.0038   -3.0298    0.4673 H         1 <0>         0.0279
     53 H27         5.7004   -3.5193    0.3972 H         1 <0>         0.0279
     54 H28       -12.3202    0.8121    0.4765 H         1 <0>         0.2094
     55 H29         7.0429    4.3659   -0.1391 H         1 <0>         0.0660
     56 H30         6.9945    3.2424    1.2271 H         1 <0>         0.0660
     57 H31         5.5488    3.4757    0.1893 H         1 <0>         0.0660
     58 H32         9.5756   -0.7525    0.2030 H         1 <0>         0.0660
     59 H33         9.5351    0.8135   -0.6729 H         1 <0>         0.0660
     60 H34        10.4862    0.6388    0.8091 H         1 <0>         0.0660
@<TRIPOS>BOND
     1    1   20 1
     2    1   54 1
     3    2   22 1
     4    2   25 1
     5    3   19 2
     6    4   24 1
     7    4   26 1
     8    5   21 2
     9    6    7 1
    10    6    8 1
    11    6   27 1
    12    6   28 1
    13    7    9 1
    14    7   29 1
    15    7   30 1
    16    8   10 1
    17    8   31 1
    18    8   32 1
    19    9   11 1
    20    9   33 1
    21    9   34 1
    22   10   12 1
    23   10   35 1
    24   10   36 1
    25   11   13 1
    26   11   37 1
    27   11   38 1
    28   12   14 1
    29   12   39 1
    30   12   40 1
    31   13   15 1
    32   13   41 1
    33   13   42 1
    34   14   16 1
    35   14   43 1
    36   14   44 1
    37   15   17 1
    38   15   45 1
    39   15   46 1
    40   16   18 2
    41   16   19 1
    42   17   20 1
    43   17   47 1
    44   17   48 1
    45   18   21 1
    46   18   23 1
    47   19   22 1
    48   20   49 1
    49   20   50 1
    50   21   24 1
    51   22   24 2
    52   23   51 1
    53   23   52 1
    54   23   53 1
    55   25   55 1
    56   25   56 1
    57   25   57 1
    58   26   58 1
    59   26   59 1
    60   26   60 1
