@<TRIPOS>MOLECULE
DB09096
   28    29     0     0     0
SMALL
USER_CHARGES

@<TRIPOS>ATOM
      1 O1          0.6721    0.2502    0.0006 O.3       1 <0>        -0.2406
      2 O2         -0.6948   -0.2579    0.0002 O.3       1 <0>        -0.2406
      3 O3          1.1501   -2.0059    0.0069 O.2       1 <0>        -0.2406
      4 O4         -1.1725    1.9981    0.0085 O.2       1 <0>        -0.2406
      5 C1          2.9122   -0.4007   -0.0000 C.ar      1 <0>         0.0631
      6 C2         -2.9352    0.3934    0.0008 C.ar      1 <0>         0.0631
      7 C3          3.8833   -1.1935    0.6115 C.ar      1 <0>        -0.0476
      8 C4         -3.8775    1.1952    0.6122 C.ar      1 <0>        -0.0476
      9 C5          3.2752    0.7994   -0.6111 C.ar      1 <0>        -0.0476
     10 C6         -3.2695   -0.7978   -0.6106 C.ar      1 <0>        -0.0476
     11 C7          5.2173   -0.7862    0.6119 C.ar      1 <0>        -0.0610
     12 C8         -5.2117    0.7883    0.6121 C.ar      1 <0>        -0.0610
     13 C9          4.6093    1.2067   -0.6107 C.ar      1 <0>        -0.0610
     14 C10        -4.6037   -1.2047   -0.6107 C.ar      1 <0>        -0.0610
     15 C11         5.5803    0.4138    0.0008 C.ar      1 <0>        -0.0617
     16 C12        -5.5748   -0.4116    0.0007 C.ar      1 <0>        -0.0617
     17 C13         1.5213   -0.8249   -0.0003 C.2       1 <0>         0.3865
     18 C14        -1.5154    0.8260    0.0010 C.2       1 <0>         0.3865
     19 H1          3.6171   -2.1300    1.0946 H         1 <0>         0.0626
     20 H2         -3.6067    2.1298    1.0944 H         1 <0>         0.0626
     21 H3          2.5429    1.4319   -1.1061 H         1 <0>         0.0626
     22 H4         -2.5358   -1.4268   -1.1058 H         1 <0>         0.0626
     23 H5          5.9735   -1.4032    1.0886 H         1 <0>         0.0618
     24 H6         -5.9678    1.4055    1.0886 H         1 <0>         0.0618
     25 H7          4.8928    2.1397   -1.0890 H         1 <0>         0.0618
     26 H8         -4.8874   -2.1374   -1.0896 H         1 <0>         0.0618
     27 H9          6.6191    0.7307    0.0006 H         1 <0>         0.0618
     28 H10        -6.6138   -0.7282   -0.0000 H         1 <0>         0.0618
@<TRIPOS>BOND
     1    1    2 1
     2    1   17 1
     3    2   18 1
     4    3   17 2
     5    4   18 2
     6    5    7 ar
     7    5    9 ar
     8    5   17 1
     9    6    8 ar
    10    6   10 ar
    11    6   18 1
    12    7   11 ar
    13    7   19 1
    14    8   12 ar
    15    8   20 1
    16    9   13 ar
    17    9   21 1
    18   10   14 ar
    19   10   22 1
    20   11   15 ar
    21   11   23 1
    22   12   16 ar
    23   12   24 1
    24   13   15 ar
    25   13   25 1
    26   14   16 ar
    27   14   26 1
    28   15   27 1
    29   16   28 1
