@<TRIPOS>MOLECULE
DB09079
   73    77     0     0     0
SMALL
USER_CHARGES

@<TRIPOS>ATOM
      1 O1          3.8455   -0.0418    0.6384 O.2       1 <0>        -0.2739
      2 O2         -4.3706   -3.3915    1.7135 O.2       1 <0>        -0.2698
      3 O3        -10.2293    0.8655    0.0917 O.3       1 <0>        -0.4644
      4 O4         -9.3073    2.9722    0.1905 O.2       1 <0>        -0.2450
      5 N1          6.4649   -0.1029    0.2858 N.3       1 <0>        -0.2916
      6 N2          8.5601    1.8887    0.2359 N.3       1 <0>        -0.3029
      7 N3          3.3697   -2.0049   -0.5556 N.am      1 <0>        -0.2734
      8 N4         -2.1576   -2.0391    0.6121 N.pl3     1 <0>        -0.3134
      9 N5         -6.3281   -2.0918    1.4701 N.am      1 <0>        -0.2809
     10 C1          6.3612    1.0918   -0.5611 C.3       1 <0>         0.0122
     11 C2          7.8725   -0.4725    0.4795 C.3       1 <0>         0.0122
     12 C3          7.1527    2.2576    0.0416 C.3       1 <0>         0.0114
     13 C4          8.6649    0.6931    1.0813 C.3       1 <0>         0.0114
     14 C5          5.7109   -1.2146   -0.2898 C.3       1 <0>         0.0763
     15 C6          9.3132    3.0003    0.8133 C.3       1 <0>        -0.0127
     16 C7          4.2244   -1.0097   -0.0267 C.2       1 <0>         0.2336
     17 C8          1.9517   -2.0133   -0.2562 C.ar      1 <0>         0.0361
     18 C9          3.8806   -3.1381   -1.3427 C.3       1 <0>         0.0083
     19 C10        -4.3834   -1.1971    0.6597 C.2       1 <0>         0.0676
     20 C11        -5.4597   -0.2437    0.4119 C.ar      1 <0>         0.0102
     21 C12        -3.0806   -1.0877    0.3521 C.2       1 <0>         0.0514
     22 C13        -6.6179   -0.8366    0.9234 C.ar      1 <0>         0.0424
     23 C14         1.0460   -2.5276   -1.1839 C.ar      1 <0>        -0.0385
     24 C15         1.4929   -1.5071    0.9601 C.ar      1 <0>        -0.0385
     25 C16        -0.7776   -2.0302    0.3208 C.ar      1 <0>         0.0315
     26 C17        -4.9680   -2.3951    1.3503 C.2       1 <0>         0.2507
     27 C18        -0.3185   -2.5362   -0.8954 C.ar      1 <0>        -0.0388
     28 C19         0.1281   -1.5156    1.2485 C.ar      1 <0>        -0.0388
     29 C20        -2.6042    0.1344   -0.3290 C.ar      1 <0>        -0.0031
     30 C21        -5.5080    1.0046   -0.1792 C.ar      1 <0>        -0.0513
     31 C22        -7.8516   -0.2185    0.8672 C.ar      1 <0>        -0.0259
     32 C23        -7.9084    1.0431    0.2715 C.ar      1 <0>         0.0608
     33 C24        -6.7480    1.6489   -0.2465 C.ar      1 <0>        -0.0471
     34 C25        -2.1695    1.2267    0.4219 C.ar      1 <0>        -0.0528
     35 C26        -2.5891    0.1958   -1.7224 C.ar      1 <0>        -0.0528
     36 C27        -9.1820    1.7407    0.1839 C.2       1 <0>         0.3390
     37 C28        -1.7200    2.3804   -0.2206 C.ar      1 <0>        -0.0611
     38 C29        -2.1396    1.3494   -2.3648 C.ar      1 <0>        -0.0611
     39 C30        -1.7051    2.4416   -1.6138 C.ar      1 <0>        -0.0617
     40 C31       -11.5403    1.4331   -0.0019 C.3       1 <0>         0.0820
     41 H1          6.7382    0.8841   -1.5723 H         1 <0>         0.0439
     42 H2          5.3218    1.4183   -0.6728 H         1 <0>         0.0439
     43 H3          7.9437   -1.3234    1.1679 H         1 <0>         0.0439
     44 H4          8.3297   -0.7808   -0.4706 H         1 <0>         0.0439
     45 H5          7.0858    3.1107   -0.6446 H         1 <0>         0.0439
     46 H6          6.6924    2.5645    0.9907 H         1 <0>         0.0439
     47 H7          8.3029    0.8992    2.0978 H         1 <0>         0.0439
     48 H8          9.7155    0.3891    1.1645 H         1 <0>         0.0439
     49 H9          5.9902   -2.1398    0.2286 H         1 <0>         0.0522
     50 H10         5.9057   -1.3305   -1.3619 H         1 <0>         0.0522
     51 H11         9.2695    3.8763    0.1566 H         1 <0>         0.0391
     52 H12        10.3716    2.7360    0.9146 H         1 <0>         0.0391
     53 H13         8.9344    3.2901    1.8001 H         1 <0>         0.0391
     54 H14         3.8387   -2.8668   -2.4020 H         1 <0>         0.0433
     55 H15         3.2813   -4.0362   -1.1603 H         1 <0>         0.0433
     56 H16         4.9104   -3.3917   -1.0893 H         1 <0>         0.0433
     57 H17         1.3700   -2.9114   -2.1472 H         1 <0>         0.0637
     58 H18         2.1604   -1.1522    1.7379 H         1 <0>         0.0637
     59 H19        -2.4767   -2.8863    1.0694 H         1 <0>         0.1522
     60 H20        -7.0253   -2.6917    1.8951 H         1 <0>         0.1552
     61 H21        -1.0157   -2.9367   -1.6269 H         1 <0>         0.0637
     62 H22        -0.2176   -1.1316    2.2050 H         1 <0>         0.0637
     63 H23        -4.6665    1.5298   -0.5972 H         1 <0>         0.0624
     64 H24        -8.7261   -0.7058    1.2852 H         1 <0>         0.0644
     65 H25        -6.8018    2.6307   -0.7120 H         1 <0>         0.0626
     66 H26        -2.1750    1.1945    1.5088 H         1 <0>         0.0624
     67 H27        -2.9251   -0.6468   -2.3219 H         1 <0>         0.0624
     68 H28        -1.3819    3.2308    0.3641 H         1 <0>         0.0618
     69 H29        -2.1280    1.3973   -3.4497 H         1 <0>         0.0618
     70 H30        -1.3553    3.3399   -2.1141 H         1 <0>         0.0618
     71 H31       -12.2617    0.6147   -0.0685 H         1 <0>         0.0661
     72 H32       -11.6210    2.0489   -0.9024 H         1 <0>         0.0661
     73 H33       -11.7594    2.0247    0.8919 H         1 <0>         0.0661
@<TRIPOS>BOND
     1    1   16 2
     2    2   26 2
     3    3   36 1
     4    3   40 1
     5    4   36 2
     6    5   10 1
     7    5   11 1
     8    5   14 1
     9    6   12 1
    10    6   13 1
    11    6   15 1
    12    7   16 am
    13    7   17 1
    14    7   18 1
    15    8   21 1
    16    8   25 1
    17    8   59 1
    18    9   22 1
    19    9   26 am
    20    9   60 1
    21   10   12 1
    22   10   41 1
    23   10   42 1
    24   11   13 1
    25   11   43 1
    26   11   44 1
    27   12   45 1
    28   12   46 1
    29   13   47 1
    30   13   48 1
    31   14   16 1
    32   14   49 1
    33   14   50 1
    34   15   51 1
    35   15   52 1
    36   15   53 1
    37   17   23 ar
    38   17   24 ar
    39   18   54 1
    40   18   55 1
    41   18   56 1
    42   19   20 1
    43   19   21 2
    44   19   26 1
    45   20   22 ar
    46   20   30 ar
    47   21   29 1
    48   22   31 ar
    49   23   27 ar
    50   23   57 1
    51   24   28 ar
    52   24   58 1
    53   25   27 ar
    54   25   28 ar
    55   27   61 1
    56   28   62 1
    57   29   34 ar
    58   29   35 ar
    59   30   33 ar
    60   30   63 1
    61   31   32 ar
    62   31   64 1
    63   32   33 ar
    64   32   36 1
    65   33   65 1
    66   34   37 ar
    67   34   66 1
    68   35   38 ar
    69   35   67 1
    70   37   39 ar
    71   37   68 1
    72   38   39 ar
    73   38   69 1
    74   39   70 1
    75   40   71 1
    76   40   72 1
    77   40   73 1
