@<TRIPOS>MOLECULE
DB09209
   59    64     0     0     0
SMALL
USER_CHARGES

@<TRIPOS>ATOM
      1 O1         -0.7693    1.8722    0.7458 O.3       1 <0>        -0.4811
      2 O2         -1.5027    3.9956   -0.5854 O.3       1 <0>        -0.3841
      3 O3          1.6902    0.8214   -0.3843 O.3       1 <0>        -0.4870
      4 O4          7.9359   -0.5699   -0.0837 O.3       1 <0>        -0.3772
      5 N1         -4.8992   -1.3610    0.8381 N.3       1 <0>        -0.3015
      6 N2          5.1549   -0.1927    0.3899 N.3       1 <0>        -0.2948
      7 C1         -2.9390    0.7709    0.6408 C.3       1 <0>         0.0480
      8 C2         -4.2220    0.7453   -0.2041 C.3       1 <0>         0.0064
      9 C3         -4.5562   -0.7581   -0.4726 C.3       1 <0>         0.0213
     10 C4         -2.2161    2.1277    0.8098 C.3       1 <0>         0.1399
     11 C5         -3.1977    0.0608    1.9842 C.3       1 <0>        -0.0263
     12 C6         -1.8631    0.0641   -0.1155 C.ar      1 <0>         0.0116
     13 C7         -3.4232   -1.4987   -1.2631 C.3       1 <0>        -0.0110
     14 C8         -3.7992   -1.3433    1.8077 C.3       1 <0>        -0.0001
     15 C9         -2.0290   -1.0230   -0.9545 C.ar      1 <0>        -0.0383
     16 C10        -2.6345    3.2103   -0.2190 C.3       1 <0>         0.1110
     17 C11        -4.0864    1.5906   -1.4448 C.2       1 <0>        -0.0799
     18 C12        -0.6551    0.7066    0.0374 C.ar      1 <0>         0.1666
     19 C13        -3.3424    2.7066   -1.4488 C.2       1 <0>        -0.0559
     20 C14        -0.8827   -1.5413   -1.5594 C.ar      1 <0>        -0.0546
     21 C15        -5.4917   -2.6901    0.7288 C.3       1 <0>        -0.0124
     22 C16         0.4912    0.2091   -0.5422 C.ar      1 <0>         0.1623
     23 C17         0.3719   -0.9388   -1.3362 C.ar      1 <0>        -0.0160
     24 C18         2.8584    0.0004   -0.4500 C.3       1 <0>         0.1024
     25 C19         3.9435    0.6246    0.4129 C.3       1 <0>         0.0333
     26 C20         5.6971   -0.2836   -0.9728 C.3       1 <0>         0.0225
     27 C21         6.1704    0.3541    1.3005 C.3       1 <0>         0.0225
     28 C22         6.9663   -1.1308   -0.9693 C.3       1 <0>         0.0604
     29 C23         7.4291   -0.5073    1.2501 C.3       1 <0>         0.0604
     30 H1         -5.0529    1.1845    0.3686 H         1 <0>         0.0368
     31 H2         -5.4647   -0.7936   -1.0898 H         1 <0>         0.0472
     32 H3         -2.3967    2.5384    1.8117 H         1 <0>         0.0772
     33 H4         -3.8957    0.6694    2.5750 H         1 <0>         0.0287
     34 H5         -2.2770   -0.0207    2.5763 H         1 <0>         0.0287
     35 H6         -3.5962   -1.3128   -2.3318 H         1 <0>         0.0329
     36 H7         -3.4801   -2.5831   -1.1275 H         1 <0>         0.0329
     37 H8         -3.0121   -2.0517    1.5211 H         1 <0>         0.0427
     38 H9         -4.1672   -1.6740    2.7871 H         1 <0>         0.0427
     39 H10        -3.3401    3.8939    0.2709 H         1 <0>         0.0675
     40 H11        -4.6369    1.3099   -2.3372 H         1 <0>         0.0573
     41 H12        -3.3069    3.3137   -2.3489 H         1 <0>         0.0596
     42 H13        -0.9535   -2.3922   -2.2316 H         1 <0>         0.0622
     43 H14        -4.7734   -3.4529    0.4126 H         1 <0>         0.0391
     44 H15        -6.3292   -2.6874    0.0226 H         1 <0>         0.0391
     45 H16        -5.9035   -3.0002    1.6959 H         1 <0>         0.0391
     46 H17         1.2249   -1.3675   -1.8557 H         1 <0>         0.0655
     47 H18        -1.0937    4.3184    0.2356 H         1 <0>         0.2104
     48 H19         2.6582   -1.0130   -0.0771 H         1 <0>         0.0709
     49 H20         3.1404   -0.0428   -1.5054 H         1 <0>         0.0709
     50 H21         4.1376    1.6533    0.0811 H         1 <0>         0.0460
     51 H22         3.5620    0.7053    1.4392 H         1 <0>         0.0460
     52 H23         5.9237    0.7167   -1.3640 H         1 <0>         0.0449
     53 H24         5.0077   -0.7775   -1.6623 H         1 <0>         0.0449
     54 H25         5.7914    0.3690    2.3287 H         1 <0>         0.0449
     55 H26         6.4218    1.3839    1.0152 H         1 <0>         0.0449
     56 H27         6.7608   -2.1681   -0.6775 H         1 <0>         0.0572
     57 H28         7.4051   -1.1500   -1.9722 H         1 <0>         0.0572
     58 H29         8.2075   -0.0671    1.8814 H         1 <0>         0.0572
     59 H30         7.2393   -1.5232    1.6175 H         1 <0>         0.0572
@<TRIPOS>BOND
     1    1   10 1
     2    1   18 1
     3    2   16 1
     4    2   47 1
     5    3   22 1
     6    3   24 1
     7    4   28 1
     8    4   29 1
     9    5    9 1
    10    5   14 1
    11    5   21 1
    12    6   25 1
    13    6   26 1
    14    6   27 1
    15    7    8 1
    16    7   10 1
    17    7   11 1
    18    7   12 1
    19    8    9 1
    20    8   17 1
    21    8   30 1
    22    9   13 1
    23    9   31 1
    24   10   16 1
    25   10   32 1
    26   11   14 1
    27   11   33 1
    28   11   34 1
    29   12   15 ar
    30   12   18 ar
    31   13   15 1
    32   13   35 1
    33   13   36 1
    34   14   37 1
    35   14   38 1
    36   15   20 ar
    37   16   19 1
    38   16   39 1
    39   17   19 2
    40   17   40 1
    41   18   22 ar
    42   19   41 1
    43   20   23 ar
    44   20   42 1
    45   21   43 1
    46   21   44 1
    47   21   45 1
    48   22   23 ar
    49   23   46 1
    50   24   25 1
    51   24   48 1
    52   24   49 1
    53   25   50 1
    54   25   51 1
    55   26   28 1
    56   26   52 1
    57   26   53 1
    58   27   29 1
    59   27   54 1
    60   27   55 1
    61   28   56 1
    62   28   57 1
    63   29   58 1
    64   29   59 1
