@<TRIPOS>MOLECULE
DB09216
   30    31     0     0     0
SMALL
USER_CHARGES

@<TRIPOS>ATOM
      1 Cl1        -5.1186    0.9405    0.6553 Cl        1 <0>        -0.0832
      2 O1          3.5244    2.4568   -0.6384 O.3       1 <0>        -0.4771
      3 O2          1.4558    2.2057   -1.5465 O.2       1 <0>        -0.2451
      4 N1         -0.0143    0.4371    0.0136 N.pl3     1 <0>        -0.3136
      5 C1         -1.3141   -0.0657   -0.1784 C.ar      1 <0>         0.0357
      6 C2         -2.4335    0.6276    0.2905 C.ar      1 <0>        -0.0110
      7 C3          1.2408   -0.1929    0.1683 C.ar      1 <0>         0.0454
      8 C4          2.4129    0.4315   -0.2581 C.ar      1 <0>         0.0799
      9 C5         -1.4855   -1.2795   -0.8500 C.ar      1 <0>        -0.0402
     10 C6         -3.7136    0.1116    0.0897 C.ar      1 <0>         0.0456
     11 C7          1.2978   -1.4559    0.7574 C.ar      1 <0>        -0.0397
     12 C8         -2.2418    1.9276    1.0098 C.3       1 <0>        -0.0366
     13 C9         -2.7655   -1.7958   -1.0508 C.ar      1 <0>        -0.0586
     14 C10        -3.8797   -1.1001   -0.5810 C.ar      1 <0>        -0.0430
     15 C11         3.6423   -0.2073   -0.0954 C.ar      1 <0>        -0.0460
     16 C12         2.5272   -2.0947    0.9204 C.ar      1 <0>        -0.0600
     17 C13         3.6993   -1.4704    0.4940 C.ar      1 <0>        -0.0609
     18 C14         2.3868    1.7507   -0.8774 C.2       1 <0>         0.3386
     19 H1          0.0406    1.4503   -0.0177 H         1 <0>         0.1522
     20 H2         -0.6405   -1.8329   -1.2508 H         1 <0>         0.0636
     21 H3          0.4060   -1.9572    1.1232 H         1 <0>         0.0636
     22 H4         -3.0158    2.1147    1.7598 H         1 <0>         0.0279
     23 H5         -1.3058    1.9510    1.5780 H         1 <0>         0.0279
     24 H6         -2.2394    2.7553    0.2934 H         1 <0>         0.0279
     25 H7         -2.8954   -2.7364   -1.5782 H         1 <0>         0.0619
     26 H8         -4.8704   -1.5156   -0.7471 H         1 <0>         0.0632
     27 H9          4.5723    0.2458   -0.4287 H         1 <0>         0.0626
     28 H10         2.5725   -3.0758    1.3838 H         1 <0>         0.0618
     29 H11         4.6561   -1.9690    0.6193 H         1 <0>         0.0618
     30 H12         3.4991    3.3431   -1.0580 H         1 <0>         0.2954
@<TRIPOS>BOND
     1    1   10 1
     2    2   18 1
     3    2   30 1
     4    3   18 2
     5    4    5 1
     6    4    7 1
     7    4   19 1
     8    5    6 ar
     9    5    9 ar
    10    6   10 ar
    11    6   12 1
    12    7    8 ar
    13    7   11 ar
    14    8   15 ar
    15    8   18 1
    16    9   13 ar
    17    9   20 1
    18   10   14 ar
    19   11   16 ar
    20   11   21 1
    21   12   22 1
    22   12   23 1
    23   12   24 1
    24   13   14 ar
    25   13   25 1
    26   14   26 1
    27   15   17 ar
    28   15   27 1
    29   16   17 ar
    30   16   28 1
    31   17   29 1
