@<TRIPOS>MOLECULE
DB09480
   32    32     0     0     0
SMALL
USER_CHARGES

@<TRIPOS>ATOM
      1 I1          6.4111    0.9374   -1.0658 I         1 <0>        -0.0438
      2 N1         -1.7905   -0.0984    0.7776 N.3       1 <0>        -0.3110
      3 C1         -0.4940   -0.2966    0.1228 C.3       1 <0>         0.0090
      4 C2          0.6135   -0.3804    1.1889 C.3       1 <0>        -0.0125
      5 C3         -2.8431    0.0669   -0.2107 C.3       1 <0>         0.0022
      6 C4         -0.5771   -1.5587   -0.7359 C.3       1 <0>        -0.0494
      7 C5          1.9910   -0.0667    0.6559 C.ar      1 <0>        -0.0458
      8 C6         -2.5571    1.2807   -1.0903 C.3       1 <0>        -0.0499
      9 C7         -4.1868    0.2078    0.4976 C.3       1 <0>        -0.0499
     10 C8          2.7731   -1.0937    0.1526 C.ar      1 <0>        -0.0575
     11 C9          2.4468    1.2417    0.6781 C.ar      1 <0>        -0.0575
     12 C10         4.0451   -0.8048   -0.3412 C.ar      1 <0>        -0.0484
     13 C11         3.7189    1.5307    0.1841 C.ar      1 <0>        -0.0484
     14 C12         4.5180    0.5074   -0.3258 C.ar      1 <0>         0.0134
     15 H1         -0.2418    0.5580   -0.5133 H         1 <0>         0.0461
     16 H2          0.6136   -1.3677    1.6708 H         1 <0>         0.0328
     17 H3          0.4032    0.3315    2.0002 H         1 <0>         0.0328
     18 H4         -2.9609   -0.8168   -0.8456 H         1 <0>         0.0455
     19 H5         -1.9994   -0.8932    1.3814 H         1 <0>         0.1224
     20 H6         -1.1766   -1.4204   -1.6407 H         1 <0>         0.0245
     21 H7         -0.9770   -2.4114   -0.1749 H         1 <0>         0.0245
     22 H8          0.4124   -1.8525   -1.0981 H         1 <0>         0.0245
     23 H9         -3.4505    1.5503   -1.6663 H         1 <0>         0.0245
     24 H10        -2.2828    2.1599   -0.4959 H         1 <0>         0.0245
     25 H11        -1.7699    1.0942   -1.8270 H         1 <0>         0.0245
     26 H12        -4.4046   -0.6737    1.1110 H         1 <0>         0.0245
     27 H13        -5.0005    0.3135   -0.2284 H         1 <0>         0.0245
     28 H14        -4.2055    1.0876    1.1508 H         1 <0>         0.0245
     29 H15         2.4211   -2.1210    0.1453 H         1 <0>         0.0621
     30 H16         1.8307    2.0459    1.0701 H         1 <0>         0.0621
     31 H17         4.6523   -1.6176   -0.7320 H         1 <0>         0.0628
     32 H18         4.0673    2.5602    0.2045 H         1 <0>         0.0628
@<TRIPOS>BOND
     1    1   14 1
     2    2    3 1
     3    2    5 1
     4    2   19 1
     5    3    4 1
     6    3    6 1
     7    3   15 1
     8    4    7 1
     9    4   16 1
    10    4   17 1
    11    5    8 1
    12    5    9 1
    13    5   18 1
    14    6   20 1
    15    6   21 1
    16    6   22 1
    17    7   10 ar
    18    7   11 ar
    19    8   23 1
    20    8   24 1
    21    8   25 1
    22    9   26 1
    23    9   27 1
    24    9   28 1
    25   10   12 ar
    26   10   29 1
    27   11   13 ar
    28   11   30 1
    29   12   14 ar
    30   12   31 1
    31   13   14 ar
    32   13   32 1
