@<TRIPOS>MOLECULE
DB09214
   33    34     0     0     0
SMALL
USER_CHARGES

@<TRIPOS>ATOM
      1 O1         -3.8148    2.6522    0.5009 O.3       1 <0>        -0.4802
      2 O2          1.5990   -1.5059   -2.2946 O.2       1 <0>        -0.2867
      3 O3         -1.6775    2.0955    1.0083 O.2       1 <0>        -0.2503
      4 C1         -3.1338    0.3765    0.0651 C.3       1 <0>         0.0784
      5 C2         -1.9989   -0.5835    0.1865 C.ar      1 <0>        -0.0333
      6 C3         -0.8208   -0.3656   -0.5280 C.ar      1 <0>        -0.0470
      7 C4          0.2244   -1.2673   -0.4054 C.ar      1 <0>         0.0225
      8 C5         -2.1162   -1.7003    1.0141 C.ar      1 <0>        -0.0578
      9 C6         -3.7002    0.4895   -1.3651 C.3       1 <0>        -0.0482
     10 C7          0.1225   -2.3810    0.4131 C.ar      1 <0>        -0.0509
     11 C8         -1.0554   -2.5989    1.1274 C.ar      1 <0>        -0.0608
     12 C9          1.4682   -1.0380   -1.1597 C.2       1 <0>         0.1931
     13 C10        -2.7763    1.7781    0.5722 C.2       1 <0>         0.3119
     14 C11         2.5213   -0.2540   -0.5346 C.ar      1 <0>         0.0223
     15 C12         2.3398    0.2590    0.7498 C.ar      1 <0>        -0.0509
     16 C13         3.7131   -0.0152   -1.2189 C.ar      1 <0>        -0.0509
     17 C14         3.3499    1.0109    1.3497 C.ar      1 <0>        -0.0611
     18 C15         4.7233    0.7366   -0.6189 C.ar      1 <0>        -0.0611
     19 C16         4.5416    1.2497    0.6654 C.ar      1 <0>        -0.0617
     20 H1         -3.9516    0.0354    0.7150 H         1 <0>         0.0459
     21 H2         -0.7185    0.5001   -1.1775 H         1 <0>         0.0628
     22 H3         -3.0268   -1.8857    1.5776 H         1 <0>         0.0621
     23 H4         -2.9877    0.9710   -2.0442 H         1 <0>         0.0241
     24 H5         -3.9369   -0.5013   -1.7684 H         1 <0>         0.0241
     25 H6         -4.6197    1.0846   -1.3804 H         1 <0>         0.0241
     26 H7          0.9436   -3.0862    0.5063 H         1 <0>         0.0625
     27 H8         -1.1466   -3.4685    1.7718 H         1 <0>         0.0618
     28 H9          1.4350    0.1062    1.3291 H         1 <0>         0.0625
     29 H10         3.8783   -0.4041   -2.2203 H         1 <0>         0.0625
     30 H11         3.2093    1.4109    2.3496 H         1 <0>         0.0618
     31 H12         5.6513    0.9229   -1.1514 H         1 <0>         0.0618
     32 H13         5.3280    1.8351    1.1325 H         1 <0>         0.0618
     33 H14        -3.5670    3.5412    0.8331 H         1 <0>         0.2951
@<TRIPOS>BOND
     1    1   13 1
     2    1   33 1
     3    2   12 2
     4    3   13 2
     5    4    5 1
     6    4    9 1
     7    4   13 1
     8    4   20 1
     9    5    6 ar
    10    5    8 ar
    11    6    7 ar
    12    6   21 1
    13    7   10 ar
    14    7   12 1
    15    8   11 ar
    16    8   22 1
    17    9   23 1
    18    9   24 1
    19    9   25 1
    20   10   11 ar
    21   10   26 1
    22   11   27 1
    23   12   14 1
    24   14   15 ar
    25   14   16 ar
    26   15   17 ar
    27   15   28 1
    28   16   18 ar
    29   16   29 1
    30   17   19 ar
    31   17   30 1
    32   18   19 ar
    33   18   31 1
    34   19   32 1
