@<TRIPOS>MOLECULE
DB09378
   54    57     0     0     0
SMALL
USER_CHARGES

@<TRIPOS>ATOM
      1 F1         -3.3984    3.2717   -0.0485 F         1 <0>        -0.2407
      2 O1          2.9124   -0.1645    1.9989 O.3       1 <0>        -0.3804
      3 O2         -0.5568   -2.1629   -1.3462 O.3       1 <0>        -0.3914
      4 O3          4.0757   -1.9359   -0.1893 O.2       1 <0>        -0.2919
      5 O4          6.5677   -0.9544    0.4427 O.3       1 <0>        -0.3874
      6 O5         -6.2120   -0.0238    2.2484 O.2       1 <0>        -0.2879
      7 C1          1.6591   -0.3663   -0.1092 C.3       1 <0>         0.0091
      8 C2          0.8070    0.8754    0.2363 C.3       1 <0>        -0.0291
      9 C3         -0.6088    0.8448   -0.3621 C.3       1 <0>        -0.0284
     10 C4         -1.3656   -0.4099    0.1987 C.3       1 <0>         0.0009
     11 C5          2.9895    0.0357    0.5909 C.3       1 <0>         0.1315
     12 C6          0.9300   -1.6007    0.4586 C.3       1 <0>        -0.0178
     13 C7         -0.5416   -1.7238    0.0048 C.3       1 <0>         0.0600
     14 C8          1.7277    2.0424   -0.1092 C.3       1 <0>        -0.0463
     15 C9         -2.8792   -0.4570   -0.2537 C.3       1 <0>         0.0158
     16 C10         3.1316    1.5471    0.2936 C.3       1 <0>        -0.0162
     17 C11        -1.3606    2.1423   -0.0220 C.3       1 <0>        -0.0143
     18 C12         1.9005   -0.5339   -1.6351 C.3       1 <0>        -0.0562
     19 C13        -2.8170    2.1076   -0.4619 C.3       1 <0>         0.1235
     20 C14        -3.5081    0.8949    0.1097 C.2       1 <0>        -0.0226
     21 C15         4.1843   -0.7627    0.1644 C.2       1 <0>         0.1902
     22 C16        -3.0748   -0.6802   -1.7703 C.3       1 <0>        -0.0519
     23 C17        -3.5933   -1.6042    0.4462 C.2       1 <0>        -0.0701
     24 C18        -4.5749    1.0244    0.9141 C.2       1 <0>        -0.0122
     25 C19         5.5167   -0.0445    0.1959 C.3       1 <0>         0.1052
     26 C20        -4.6537   -1.4791    1.2501 C.2       1 <0>        -0.0180
     27 C21        -5.2281   -0.1505    1.5272 C.2       1 <0>         0.1788
     28 H1          0.6736    0.9108    1.3304 H         1 <0>         0.0310
     29 H2         -0.5495    0.7793   -1.4528 H         1 <0>         0.0308
     30 H3         -1.3899   -0.2676    1.2933 H         1 <0>         0.0340
     31 H4          0.9139   -1.5563    1.5540 H         1 <0>         0.0297
     32 H5          1.4756   -2.5124    0.1868 H         1 <0>         0.0297
     33 H6         -0.9857   -2.5240    0.6089 H         1 <0>         0.0596
     34 H7          1.4604    2.9533    0.4361 H         1 <0>         0.0269
     35 H8          1.6942    2.2750   -1.1796 H         1 <0>         0.0269
     36 H9          3.8143    1.7706   -0.5326 H         1 <0>         0.0297
     37 H10         3.4778    2.0962    1.1770 H         1 <0>         0.0297
     38 H11        -0.8732    3.0017   -0.4981 H         1 <0>         0.0299
     39 H12        -1.3152    2.3366    1.0583 H         1 <0>         0.0299
     40 H13         0.9842   -0.4443   -2.2224 H         1 <0>         0.0236
     41 H14         2.5940    0.2130   -2.0358 H         1 <0>         0.0236
     42 H15         2.3191   -1.5186   -1.8681 H         1 <0>         0.0236
     43 H16        -2.8864    2.1003   -1.5543 H         1 <0>         0.0699
     44 H17        -2.9048   -1.7199   -2.0673 H         1 <0>         0.0241
     45 H18        -4.1035   -0.4450   -2.0742 H         1 <0>         0.0241
     46 H19        -2.4113   -0.0560   -2.3762 H         1 <0>         0.0241
     47 H20        -3.2307   -2.6122    0.2580 H         1 <0>         0.0582
     48 H21         2.8751   -1.1197    2.1758 H         1 <0>         0.2108
     49 H22        -1.2179   -2.8718   -1.4174 H         1 <0>         0.2098
     50 H23        -4.9934    1.9941    1.1613 H         1 <0>         0.0656
     51 H24         5.5406    0.7039    0.9922 H         1 <0>         0.0637
     52 H25         5.6896    0.4371   -0.7698 H         1 <0>         0.0637
     53 H26        -5.1219   -2.3439    1.7053 H         1 <0>         0.0653
     54 H27         6.4416   -1.3121    1.3382 H         1 <0>         0.2100
@<TRIPOS>BOND
     1    1   19 1
     2    2   11 1
     3    2   48 1
     4    3   13 1
     5    3   49 1
     6    4   21 2
     7    5   25 1
     8    5   54 1
     9    6   27 2
    10    7    8 1
    11    7   11 1
    12    7   12 1
    13    7   18 1
    14    8    9 1
    15    8   14 1
    16    8   28 1
    17    9   10 1
    18    9   17 1
    19    9   29 1
    20   10   13 1
    21   10   15 1
    22   10   30 1
    23   11   16 1
    24   11   21 1
    25   12   13 1
    26   12   31 1
    27   12   32 1
    28   13   33 1
    29   14   16 1
    30   14   34 1
    31   14   35 1
    32   15   20 1
    33   15   22 1
    34   15   23 1
    35   16   36 1
    36   16   37 1
    37   17   19 1
    38   17   38 1
    39   17   39 1
    40   18   40 1
    41   18   41 1
    42   18   42 1
    43   19   20 1
    44   19   43 1
    45   20   24 2
    46   21   25 1
    47   22   44 1
    48   22   45 1
    49   22   46 1
    50   23   26 2
    51   23   47 1
    52   24   27 1
    53   24   50 1
    54   25   51 1
    55   25   52 1
    56   26   27 1
    57   26   53 1
