@<TRIPOS>MOLECULE
DB09516
   17    17     0     0     0
SMALL
USER_CHARGES

@<TRIPOS>ATOM
      1 O1         -1.8689   -1.0073   -0.0001 O.3       1 <0>        -0.4951
      2 O2          3.3056    0.8911   -0.0005 O.3       1 <0>        -0.5068
      3 C1         -0.5912   -0.5384   -0.0002 C.ar      1 <0>         0.1203
      4 C2         -0.3525    0.8358    0.0000 C.ar      1 <0>        -0.0165
      5 C3          0.4795   -1.4323    0.0001 C.ar      1 <0>        -0.0165
      6 C4          2.0279    0.4224    0.0005 C.ar      1 <0>         0.1171
      7 C5          0.9570    1.3162    0.0004 C.ar      1 <0>        -0.0167
      8 C6          1.7891   -0.9519    0.0004 C.ar      1 <0>        -0.0167
      9 C7         -2.9162   -0.0384   -0.0000 C.3       1 <0>         0.0788
     10 H1         -1.1367    1.5851   -0.0002 H         1 <0>         0.0655
     11 H2          0.2996   -2.5039   -0.0001 H         1 <0>         0.0655
     12 H3          1.1379    2.3878    0.0002 H         1 <0>         0.0655
     13 H4          2.6145   -1.6588    0.0002 H         1 <0>         0.0655
     14 H5         -2.9001    0.5718   -0.9095 H         1 <0>         0.0660
     15 H6         -2.8999    0.5718    0.9095 H         1 <0>         0.0660
     16 H7         -3.8640   -0.5866    0.0000 H         1 <0>         0.0660
     17 H8          3.9183    0.1358   -0.0005 H         1 <0>         0.2921
@<TRIPOS>BOND
     1    1    3 1
     2    1    9 1
     3    2    6 1
     4    2   17 1
     5    3    4 ar
     6    3    5 ar
     7    4    7 ar
     8    4   10 1
     9    5    8 ar
    10    5   11 1
    11    6    7 ar
    12    6    8 ar
    13    7   12 1
    14    8   13 1
    15    9   14 1
    16    9   15 1
    17    9   16 1
