@<TRIPOS>MOLECULE
DB09019
   38    39     0     0     0
SMALL
USER_CHARGES

@<TRIPOS>ATOM
      1 Br1        -4.6589   -2.8221    1.1251 Br        1 <0>        -0.0484
      2 Br2        -5.8801    2.3881   -0.7380 Br        1 <0>        -0.0502
      3 N1         -0.0018   -0.1292   -0.3546 N.3       1 <0>        -0.2982
      4 N2         -1.7220   -1.7037    1.0274 N.pl3     1 <0>        -0.3569
      5 C1          1.3996    0.2854   -0.3339 C.3       1 <0>         0.0105
      6 C2          1.8318    0.5889    1.1050 C.3       1 <0>        -0.0373
      7 C3          2.2756   -0.8080   -0.9552 C.3       1 <0>        -0.0373
      8 C4          3.3141    0.9521    1.1760 C.3       1 <0>        -0.0516
      9 C5          3.7571   -0.4425   -0.8821 C.3       1 <0>        -0.0516
     10 C6          4.1892   -0.1286    0.5475 C.3       1 <0>        -0.0530
     11 C7         -0.8507    0.9063    0.2344 C.3       1 <0>         0.0258
     12 C8         -0.4288   -0.4224   -1.7225 C.3       1 <0>        -0.0121
     13 C9         -2.3034    0.5109    0.2289 C.ar      1 <0>        -0.0106
     14 C10        -2.6972   -0.7628    0.6193 C.ar      1 <0>         0.0432
     15 C11        -3.2415    1.4528   -0.1755 C.ar      1 <0>        -0.0415
     16 C12        -4.0505   -1.1004    0.6047 C.ar      1 <0>         0.0398
     17 C13        -4.5948    1.1152   -0.1900 C.ar      1 <0>         0.0193
     18 C14        -4.9993   -0.1615    0.2001 C.ar      1 <0>        -0.0320
     19 H1          1.5288    1.2026   -0.9276 H         1 <0>         0.0462
     20 H2          1.6384   -0.2741    1.7555 H         1 <0>         0.0280
     21 H3          1.3007    1.4472    1.5275 H         1 <0>         0.0280
     22 H4          2.0529   -0.9613   -2.0162 H         1 <0>         0.0280
     23 H5          2.1143   -1.7657   -0.4432 H         1 <0>         0.0280
     24 H6          3.6079    1.1011    2.2213 H         1 <0>         0.0266
     25 H7          3.4828    1.9044    0.6579 H         1 <0>         0.0266
     26 H8          3.9512    0.4280   -1.5209 H         1 <0>         0.0266
     27 H9          4.3608   -1.2682   -1.2756 H         1 <0>         0.0266
     28 H10         5.2362    0.1947    0.5538 H         1 <0>         0.0265
     29 H11         4.1326   -1.0412    1.1537 H         1 <0>         0.0265
     30 H12        -0.7099    1.8620   -0.2883 H         1 <0>         0.0476
     31 H13        -0.6296    1.0754    1.2932 H         1 <0>         0.0476
     32 H14        -0.1907    0.3955   -2.4135 H         1 <0>         0.0391
     33 H15        -1.4997   -0.6230   -1.8250 H         1 <0>         0.0391
     34 H16         0.0306   -1.3439   -2.0944 H         1 <0>         0.0391
     35 H17        -2.9256    2.4483   -0.4778 H         1 <0>         0.0632
     36 H18        -6.0555   -0.4220    0.1878 H         1 <0>         0.0640
     37 H19        -2.0181   -2.6269    1.3164 H         1 <0>         0.1424
     38 H20        -0.7466   -1.4515    1.0988 H         1 <0>         0.1424
@<TRIPOS>BOND
     1    1   16 1
     2    2   17 1
     3    3    5 1
     4    3   11 1
     5    3   12 1
     6    4   14 1
     7    4   37 1
     8    4   38 1
     9    5    6 1
    10    5    7 1
    11    5   19 1
    12    6    8 1
    13    6   20 1
    14    6   21 1
    15    7    9 1
    16    7   22 1
    17    7   23 1
    18    8   10 1
    19    8   24 1
    20    8   25 1
    21    9   10 1
    22    9   26 1
    23    9   27 1
    24   10   28 1
    25   10   29 1
    26   11   13 1
    27   11   30 1
    28   11   31 1
    29   12   32 1
    30   12   33 1
    31   12   34 1
    32   13   14 ar
    33   13   15 ar
    34   14   16 ar
    35   15   17 ar
    36   15   35 1
    37   16   18 ar
    38   17   18 ar
    39   18   36 1
