@<TRIPOS>MOLECULE
DB09342
   47    47     0     0     0
SMALL
USER_CHARGES

@<TRIPOS>ATOM
      1 O1          0.3561    0.4966    0.2360 O.3       1 <0>        -0.4598
      2 O2         -3.5037   -0.6708    0.9728 O.3       1 <0>        -0.4911
      3 O3         -0.8615   -0.8244    1.6753 O.2       1 <0>        -0.2448
      4 N1          3.8514   -0.5755   -0.2320 N.3       1 <0>        -0.2996
      5 N2         -5.0082    3.7485   -0.1762 N.pl3     1 <0>        -0.3579
      6 C1          2.6435    0.2295   -0.4104 C.3       1 <0>         0.0332
      7 C2          4.7693   -0.3753   -1.3527 C.3       1 <0>        -0.0038
      8 C3          4.5068   -0.2404    1.0318 C.3       1 <0>        -0.0038
      9 C4          1.5012   -0.3240    0.4265 C.3       1 <0>         0.1054
     10 C5          5.2337    1.0691   -1.4307 C.3       1 <0>        -0.0524
     11 C6          5.7307   -1.1104    1.2631 C.3       1 <0>        -0.0524
     12 C7         -1.8819    1.0641    0.6376 C.ar      1 <0>         0.1006
     13 C8         -3.2054    0.6251    0.6745 C.ar      1 <0>         0.1362
     14 C9         -0.7619    0.1321    0.9225 C.2       1 <0>         0.3428
     15 C10        -4.2084   -1.4174   -0.0169 C.3       1 <0>         0.0894
     16 C11        -1.5966    2.3944    0.3302 C.ar      1 <0>        -0.0425
     17 C12        -3.8341   -2.8856    0.1157 C.3       1 <0>        -0.0215
     18 C13        -4.2436    1.5165    0.4040 C.ar      1 <0>         0.0015
     19 C14        -3.9584    2.8467    0.0965 C.ar      1 <0>         0.0281
     20 C15        -2.6349    3.2857    0.0595 C.ar      1 <0>        -0.0400
     21 C16        -4.5379   -3.7437   -0.9202 C.3       1 <0>        -0.0622
     22 H1          2.3106    0.2108   -1.4572 H         1 <0>         0.0460
     23 H2          2.7928    1.2885   -0.1624 H         1 <0>         0.0460
     24 H3          5.6266   -1.0554   -1.3098 H         1 <0>         0.0424
     25 H4          4.2610   -0.6396   -2.2891 H         1 <0>         0.0424
     26 H5          4.7625    0.8199    1.1368 H         1 <0>         0.0424
     27 H6          3.8269   -0.4612    1.8622 H         1 <0>         0.0424
     28 H7          1.2680   -1.3498    0.1155 H         1 <0>         0.0710
     29 H8          1.7454   -0.3248    1.4936 H         1 <0>         0.0710
     30 H9          4.4170    1.7884   -1.5362 H         1 <0>         0.0242
     31 H10         5.8671    1.3679   -0.5910 H         1 <0>         0.0242
     32 H11         5.8541    1.1856   -2.3279 H         1 <0>         0.0242
     33 H12         5.5119   -2.1706    1.0951 H         1 <0>         0.0242
     34 H13         6.5783   -0.8199    0.6353 H         1 <0>         0.0242
     35 H14         6.0614   -1.0083    2.3029 H         1 <0>         0.0242
     36 H15        -5.2850   -1.2859    0.1410 H         1 <0>         0.0696
     37 H16        -3.9548   -1.0628   -1.0244 H         1 <0>         0.0696
     38 H17        -0.5769    2.7696    0.3068 H         1 <0>         0.0627
     39 H18        -4.0817   -3.2390    1.1239 H         1 <0>         0.0295
     40 H19        -2.7478   -2.9983    0.0155 H         1 <0>         0.0295
     41 H20        -5.2769    1.1796    0.4410 H         1 <0>         0.0673
     42 H21        -2.4002    4.3207   -0.1759 H         1 <0>         0.0636
     43 H22        -5.6251   -3.6736   -0.8143 H         1 <0>         0.0231
     44 H23        -4.2703   -3.4325   -1.9350 H         1 <0>         0.0231
     45 H24        -4.2520   -4.7934   -0.8007 H         1 <0>         0.0231
     46 H25        -5.9679    3.4305   -0.1517 H         1 <0>         0.1423
     47 H26        -4.8016    4.7125   -0.4011 H         1 <0>         0.1423
@<TRIPOS>BOND
     1    1    9 1
     2    1   14 1
     3    2   13 1
     4    2   15 1
     5    3   14 2
     6    4    6 1
     7    4    7 1
     8    4    8 1
     9    5   19 1
    10    5   46 1
    11    5   47 1
    12    6    9 1
    13    6   22 1
    14    6   23 1
    15    7   10 1
    16    7   24 1
    17    7   25 1
    18    8   11 1
    19    8   26 1
    20    8   27 1
    21    9   28 1
    22    9   29 1
    23   10   30 1
    24   10   31 1
    25   10   32 1
    26   11   33 1
    27   11   34 1
    28   11   35 1
    29   12   13 ar
    30   12   14 1
    31   12   16 ar
    32   13   18 ar
    33   15   17 1
    34   15   36 1
    35   15   37 1
    36   16   20 ar
    37   16   38 1
    38   17   21 1
    39   17   39 1
    40   17   40 1
    41   18   19 ar
    42   18   41 1
    43   19   20 ar
    44   20   42 1
    45   21   43 1
    46   21   44 1
    47   21   45 1
