@<TRIPOS>MOLECULE
DB09048
   73    76     0     0     0
SMALL
USER_CHARGES

@<TRIPOS>ATOM
      1 F1          7.7216    0.2916    1.1906 F         1 <0>        -0.1659
      2 F2          7.3628   -1.2371    2.6865 F         1 <0>        -0.1659
      3 F3          8.3831   -1.7493    0.8357 F         1 <0>        -0.1659
      4 F4          2.5784   -4.4864   -0.4041 F         1 <0>        -0.1659
      5 F5          4.5993   -5.2701   -0.3263 F         1 <0>        -0.1659
      6 F6          3.5676   -4.7463    1.5149 F         1 <0>        -0.1659
      7 O1          1.2030    0.0543   -2.3414 O.2       1 <0>        -0.2743
      8 N1         -4.3851   -0.8276    0.0151 N.pl3     1 <0>        -0.3127
      9 N2         -7.1517   -1.5165    0.1915 N.3       1 <0>        -0.3024
     10 N3          1.0914    0.1207   -0.0204 N.am      1 <0>        -0.2718
     11 N4         -2.1297   -1.6397    0.0423 N.ar      1 <0>        -0.2384
     12 C1         -5.2103   -0.2812    1.0967 C.3       1 <0>         0.0263
     13 C2         -4.8736   -2.0735   -0.5893 C.3       1 <0>         0.0263
     14 C3         -6.6787   -0.2116    0.6695 C.3       1 <0>         0.0144
     15 C4         -6.3522   -1.9452   -0.9629 C.3       1 <0>         0.0144
     16 C5          3.3518    0.4055   -1.3071 C.3       1 <0>         0.0667
     17 C6         -3.0063   -0.5887    0.0056 C.ar      1 <0>         0.1220
     18 C7          4.1353   -0.6855   -0.5651 C.ar      1 <0>        -0.0319
     19 C8          1.8085    0.1758   -1.2671 C.2       1 <0>         0.2296
     20 C9         -0.2917   -0.0702   -0.0135 C.ar      1 <0>         0.0620
     21 C10        -1.1894    0.9911   -0.0505 C.ar      1 <0>         0.0085
     22 C11         3.8143    0.3132   -2.7895 C.3       1 <0>        -0.0474
     23 C12         3.6447    1.8616   -0.8722 C.3       1 <0>        -0.0474
     24 C13        -8.5690   -1.4501   -0.1626 C.3       1 <0>        -0.0126
     25 C14        -2.5568    0.7384   -0.0412 C.ar      1 <0>        -0.0122
     26 C15        -0.8081   -1.3551    0.0318 C.ar      1 <0>         0.0517
     27 C16         3.6068   -1.9527   -0.5167 C.ar      1 <0>        -0.0459
     28 C17         5.3325   -0.3491    0.0188 C.ar      1 <0>        -0.0459
     29 C18        -0.7304    2.3658   -0.0992 C.ar      1 <0>        -0.0130
     30 C19         1.8365    0.2690    1.2671 C.3       1 <0>         0.0084
     31 C20         4.3192   -2.9445    0.1575 C.ar      1 <0>         0.0556
     32 C21         6.0450   -1.3408    0.6932 C.ar      1 <0>         0.0556
     33 C22         5.5384   -2.6387    0.7625 C.ar      1 <0>        -0.0385
     34 C23        -0.5021    3.0896    1.0706 C.ar      1 <0>        -0.0427
     35 C24        -0.5177    2.9616   -1.3419 C.ar      1 <0>        -0.0537
     36 C25         7.3491   -1.0141    1.3391 C.3       1 <0>         0.4174
     37 C26         3.7776   -4.3323    0.2314 C.3       1 <0>         0.4174
     38 C27        -0.0603    4.4107    0.9976 C.ar      1 <0>        -0.0583
     39 C28        -0.7191    2.4834    2.4202 C.3       1 <0>        -0.0391
     40 C29        -0.0759    4.2828   -1.4148 C.ar      1 <0>        -0.0612
     41 C30         0.1527    5.0072   -0.2452 C.ar      1 <0>        -0.0615
     42 H1         -4.8880    0.7268    1.3814 H         1 <0>         0.0477
     43 H2         -5.1052   -0.9164    1.9858 H         1 <0>         0.0477
     44 H3         -4.7310   -2.9040    0.1137 H         1 <0>         0.0477
     45 H4         -4.3083   -2.3065   -1.5005 H         1 <0>         0.0477
     46 H5         -7.2720    0.1081    1.5348 H         1 <0>         0.0442
     47 H6         -6.7979    0.5537   -0.1094 H         1 <0>         0.0442
     48 H7         -6.4604   -1.2356   -1.7943 H         1 <0>         0.0442
     49 H8         -6.7013   -2.9217   -1.3199 H         1 <0>         0.0442
     50 H9          3.3230    1.0733   -3.4091 H         1 <0>         0.0243
     51 H10         4.8972    0.4604   -2.8857 H         1 <0>         0.0243
     52 H11         3.5794   -0.6649   -3.2277 H         1 <0>         0.0243
     53 H12         4.6233    2.2067   -1.2270 H         1 <0>         0.0243
     54 H13         2.8963    2.5502   -1.2819 H         1 <0>         0.0243
     55 H14         3.6426    1.9864    0.2135 H         1 <0>         0.0243
     56 H15        -8.9307   -2.4329   -0.4850 H         1 <0>         0.0391
     57 H16        -9.1696   -1.1654    0.7085 H         1 <0>         0.0391
     58 H17        -8.7638   -0.7305   -0.9659 H         1 <0>         0.0391
     59 H18        -3.2682    1.5599   -0.0840 H         1 <0>         0.0658
     60 H19        -0.1586   -2.2250    0.0623 H         1 <0>         0.0849
     61 H20         2.6706   -2.2042   -1.0036 H         1 <0>         0.0626
     62 H21         5.7439    0.6518   -0.0399 H         1 <0>         0.0626
     63 H22         2.7697   -0.2737    1.3091 H         1 <0>         0.0433
     64 H23         1.2124   -0.1216    2.0779 H         1 <0>         0.0433
     65 H24         2.0097    1.3319    1.4463 H         1 <0>         0.0433
     66 H25         6.0938   -3.4120    1.2878 H         1 <0>         0.0629
     67 H26        -0.6914    2.4132   -2.2646 H         1 <0>         0.0624
     68 H27         0.1206    4.9894    1.8997 H         1 <0>         0.0620
     69 H28        -0.4265    1.4341    2.4755 H         1 <0>         0.0278
     70 H29        -1.7761    2.5641    2.6951 H         1 <0>         0.0278
     71 H30        -0.1316    3.0048    3.1845 H         1 <0>         0.0278
     72 H31         0.0902    4.7471   -2.3824 H         1 <0>         0.0618
     73 H32         0.4965    6.0359   -0.3022 H         1 <0>         0.0618
@<TRIPOS>BOND
     1    1   36 1
     2    2   36 1
     3    3   36 1
     4    4   37 1
     5    5   37 1
     6    6   37 1
     7    7   19 2
     8    8   12 1
     9    8   13 1
    10    8   17 1
    11    9   14 1
    12    9   15 1
    13    9   24 1
    14   10   19 am
    15   10   20 1
    16   10   30 1
    17   11   17 ar
    18   11   26 ar
    19   12   14 1
    20   12   42 1
    21   12   43 1
    22   13   15 1
    23   13   44 1
    24   13   45 1
    25   14   46 1
    26   14   47 1
    27   15   48 1
    28   15   49 1
    29   16   18 1
    30   16   19 1
    31   16   22 1
    32   16   23 1
    33   17   25 ar
    34   18   27 ar
    35   18   28 ar
    36   20   21 ar
    37   20   26 ar
    38   21   25 ar
    39   21   29 1
    40   22   50 1
    41   22   51 1
    42   22   52 1
    43   23   53 1
    44   23   54 1
    45   23   55 1
    46   24   56 1
    47   24   57 1
    48   24   58 1
    49   25   59 1
    50   26   60 1
    51   27   31 ar
    52   27   61 1
    53   28   32 ar
    54   28   62 1
    55   29   34 ar
    56   29   35 ar
    57   30   63 1
    58   30   64 1
    59   30   65 1
    60   31   33 ar
    61   31   37 1
    62   32   33 ar
    63   32   36 1
    64   33   66 1
    65   34   38 ar
    66   34   39 1
    67   35   40 ar
    68   35   67 1
    69   38   41 ar
    70   38   68 1
    71   39   69 1
    72   39   70 1
    73   39   71 1
    74   40   41 ar
    75   40   72 1
    76   41   73 1
