@<TRIPOS>MOLECULE
DB09144
   44    45     0     0     0
SMALL
USER_CHARGES

@<TRIPOS>ATOM
      1 O1          0.6021    0.3376   -1.1160 O.3       1 <0>        -0.3422
      2 O2         -2.1244    1.4369   -0.5265 O.3       1 <0>        -0.4549
      3 O3         -2.2695   -1.0905    0.4882 O.3       1 <0>        -0.4531
      4 O4          2.5511    1.9254    0.1282 O.3       1 <0>        -0.4621
      5 O5         -1.1120   -3.3598   -1.6415 O.2       1 <0>        -0.2464
      6 O6         -1.5430    3.6525   -0.2277 O.2       1 <0>        -0.2512
      7 O7         -2.7096   -0.0562    2.5066 O.2       1 <0>        -0.2512
      8 O8          2.9018   -5.2656   -0.4156 O.2       1 <0>        -0.2677
      9 O9          3.6865    1.9921    2.1391 O.2       1 <0>        -0.2512
     10 N1          0.5445   -1.9712   -0.7546 N.am      1 <0>        -0.2704
     11 N2          0.8873   -4.3072   -1.0298 N.am      1 <0>        -0.2749
     12 C1         -1.0967    1.0368    0.3797 C.3       1 <0>         0.1731
     13 C2         -0.9999   -0.4734    0.4303 C.3       1 <0>         0.1871
     14 C3          0.2437    1.4220   -0.2316 C.3       1 <0>         0.1357
     15 C4         -0.2567   -0.7850   -0.8573 C.3       1 <0>         0.1802
     16 C5          1.3528    1.5791    0.8000 C.3       1 <0>         0.1222
     17 C6          0.0204   -3.2160   -1.1756 C.2       1 <0>         0.3314
     18 C7          1.8342   -1.8951   -0.2418 C.2       1 <0>         0.0171
     19 C8         -2.2343    2.7810   -0.7373 C.2       1 <0>         0.3044
     20 C9         -3.0338   -0.7968    1.5881 C.2       1 <0>         0.3045
     21 C10         2.6487   -2.9441   -0.1088 C.2       1 <0>         0.0192
     22 C11         2.1779   -4.2806   -0.5246 C.2       1 <0>         0.2539
     23 C12         3.6535    2.1045    0.9211 C.2       1 <0>         0.3040
     24 C13        -3.3468    3.0509   -1.7046 C.3       1 <0>         0.0332
     25 C14        -4.3456   -1.5175    1.5141 C.3       1 <0>         0.0332
     26 C15         4.8400    2.4641    0.0791 C.3       1 <0>         0.0332
     27 H1         -1.2761    1.5066    1.3515 H         1 <0>         0.0801
     28 H2         -0.4067   -0.7872    1.2999 H         1 <0>         0.0819
     29 H3          0.2367    2.3059   -0.8730 H         1 <0>         0.0670
     30 H4         -0.9501   -0.8824   -1.7014 H         1 <0>         0.0879
     31 H5          1.5077    0.6615    1.3757 H         1 <0>         0.0725
     32 H6          1.0882    2.3850    1.4952 H         1 <0>         0.0725
     33 H7          2.1998   -0.9269    0.0660 H         1 <0>         0.0813
     34 H8          0.5313   -5.2118   -1.3259 H         1 <0>         0.1734
     35 H9          3.6490   -2.8465    0.2947 H         1 <0>         0.0686
     36 H10        -4.2911    2.6839   -1.2948 H         1 <0>         0.0342
     37 H11        -3.1293    2.5705   -2.6619 H         1 <0>         0.0342
     38 H12        -3.4328    4.1290   -1.8670 H         1 <0>         0.0342
     39 H13        -4.9413   -1.2793    2.4000 H         1 <0>         0.0342
     40 H14        -4.8950   -1.1940    0.6265 H         1 <0>         0.0342
     41 H15        -4.1739   -2.5964    1.4892 H         1 <0>         0.0342
     42 H16         5.7129    2.6045    0.7228 H         1 <0>         0.0342
     43 H17         5.0525    1.6556   -0.6248 H         1 <0>         0.0342
     44 H18         4.6460    3.3981   -0.4540 H         1 <0>         0.0342
@<TRIPOS>BOND
     1    1   14 1
     2    1   15 1
     3    2   12 1
     4    2   19 1
     5    3   13 1
     6    3   20 1
     7    4   16 1
     8    4   23 1
     9    5   17 2
    10    6   19 2
    11    7   20 2
    12    8   22 2
    13    9   23 2
    14   10   15 1
    15   10   17 am
    16   10   18 1
    17   11   17 am
    18   11   22 am
    19   11   34 1
    20   12   13 1
    21   12   14 1
    22   12   27 1
    23   13   15 1
    24   13   28 1
    25   14   16 1
    26   14   29 1
    27   15   30 1
    28   16   31 1
    29   16   32 1
    30   18   21 2
    31   18   33 1
    32   19   24 1
    33   20   25 1
    34   21   22 1
    35   21   35 1
    36   23   26 1
    37   24   36 1
    38   24   37 1
    39   24   38 1
    40   25   39 1
    41   25   40 1
    42   25   41 1
    43   26   42 1
    44   26   43 1
    45   26   44 1
