@<TRIPOS>MOLECULE
DB09055
   17    17     0     0     0
SMALL
USER_CHARGES

@<TRIPOS>ATOM
      1 O1          1.4948    2.1774   -0.0001 O.3       1 <0>        -0.6195
      2 O2         -3.3690   -1.1187   -0.0005 O.3       1 <0>        -0.4759
      3 O3         -3.4637    1.1523    0.0007 O.2       1 <0>        -0.2432
      4 N1          0.7852    1.1195   -0.0005 N.ar      1 <0>        -0.1713
      5 N2         -0.8012   -1.1855    0.0003 N.ar      1 <0>        -0.2370
      6 C1          1.3614   -0.1300   -0.0006 C.ar      1 <0>         0.2104
      7 C2         -0.5878    1.2113   -0.0001 C.ar      1 <0>         0.2155
      8 C3         -1.3401    0.0502    0.0002 C.ar      1 <0>         0.2126
      9 C4          0.5454   -1.2475    0.0000 C.ar      1 <0>         0.0962
     10 C5          2.8441   -0.2396    0.0001 C.3       1 <0>         0.0235
     11 C6         -2.7902    0.1147    0.0006 C.2       1 <0>         0.3613
     12 H1         -0.9806    2.2166   -0.0000 H         1 <0>         0.1415
     13 H2          0.9556   -2.2519    0.0005 H         1 <0>         0.0894
     14 H3          3.1712   -1.2847   -0.0078 H         1 <0>         0.0337
     15 H4          3.2628    0.2457   -0.8875 H         1 <0>         0.0337
     16 H5          3.2605    0.2323    0.8956 H         1 <0>         0.0337
     17 H6         -4.3483   -1.0618   -0.0008 H         1 <0>         0.2955
@<TRIPOS>BOND
     1    1    4 1
     2    2   11 1
     3    2   17 1
     4    3   11 2
     5    4    6 ar
     6    4    7 ar
     7    5    8 ar
     8    5    9 ar
     9    6    9 ar
    10    6   10 1
    11    7    8 ar
    12    7   12 1
    13    8   11 1
    14    9   13 1
    15   10   14 1
    16   10   15 1
    17   10   16 1
