@<TRIPOS>MOLECULE
DB09071
   37    39     0     0     0
SMALL
USER_CHARGES

@<TRIPOS>ATOM
      1 O1          4.7869   -1.3372    0.1240 O.3       1 <0>        -0.4914
      2 O2         -2.7913    0.0186   -1.4706 O.2       1 <0>        -0.2758
      3 N1         -2.7665    1.2823    0.4807 N.am      1 <0>        -0.3150
      4 C1          0.6017    0.9715   -0.3885 C.3       1 <0>        -0.0109
      5 C2         -0.3657    1.5032    0.6239 C.3       1 <0>        -0.0181
      6 C3          0.9263    2.2224    0.3691 C.3       1 <0>        -0.0411
      7 C4          1.3534   -0.2772   -0.0868 C.ar      1 <0>        -0.0372
      8 C5         -1.6361    2.1131    0.1585 C.3       1 <0>         0.0150
      9 C6          2.7352   -0.3130   -0.1171 C.ar      1 <0>         0.0009
     10 C7          0.6707   -1.4509    0.2438 C.ar      1 <0>        -0.0578
     11 C8          3.7028    0.7769   -0.3691 C.3       1 <0>         0.0104
     12 C9          3.4238   -1.4790    0.1833 C.ar      1 <0>         0.1240
     13 C10         4.9710   -0.0615   -0.5352 C.3       1 <0>         0.0937
     14 C11         1.3749   -2.6276    0.5494 C.ar      1 <0>        -0.0580
     15 C12         2.7707   -2.6469    0.5255 C.ar      1 <0>        -0.0196
     16 C13        -3.2552    0.2950   -0.3678 C.2       1 <0>         0.2128
     17 C14        -4.4500   -0.4218    0.2337 C.3       1 <0>         0.0211
     18 C15        -5.0213   -1.4811   -0.6912 C.3       1 <0>        -0.0570
     19 H1          0.3455    1.1138   -1.4361 H         1 <0>         0.0352
     20 H2         -0.4557    1.0306    1.5960 H         1 <0>         0.0322
     21 H3          1.6504    2.2069    1.1746 H         1 <0>         0.0274
     22 H4          0.8990    3.1599   -0.1742 H         1 <0>         0.0274
     23 H5         -1.6317    2.3099   -0.9194 H         1 <0>         0.0465
     24 H6         -1.7944    3.0681    0.6709 H         1 <0>         0.0465
     25 H7         -0.4163   -1.4679    0.2725 H         1 <0>         0.0620
     26 H8         -3.2107    1.4189    1.3841 H         1 <0>         0.1487
     27 H9          3.4912    1.3688   -1.2631 H         1 <0>         0.0347
     28 H10         3.7893    1.4280    0.5060 H         1 <0>         0.0347
     29 H11         5.1767   -0.2606   -1.5948 H         1 <0>         0.0700
     30 H12         5.8458    0.4421   -0.1108 H         1 <0>         0.0700
     31 H13         0.8267   -3.5293    0.8089 H         1 <0>         0.0619
     32 H14         3.3175   -3.5521    0.7646 H         1 <0>         0.0654
     33 H15        -4.1366   -0.8860    1.1756 H         1 <0>         0.0356
     34 H16        -5.2227    0.3211    0.4623 H         1 <0>         0.0356
     35 H17        -4.2729   -2.2464   -0.9218 H         1 <0>         0.0234
     36 H18        -5.8801   -1.9726   -0.2237 H         1 <0>         0.0234
     37 H19        -5.3522   -1.0398   -1.6372 H         1 <0>         0.0234
@<TRIPOS>BOND
     1    1   12 1
     2    1   13 1
     3    2   16 2
     4    3    8 1
     5    3   16 am
     6    3   26 1
     7    4    5 1
     8    4    6 1
     9    4    7 1
    10    4   19 1
    11    5    6 1
    12    5    8 1
    13    5   20 1
    14    6   21 1
    15    6   22 1
    16    7    9 ar
    17    7   10 ar
    18    8   23 1
    19    8   24 1
    20    9   11 1
    21    9   12 ar
    22   10   14 ar
    23   10   25 1
    24   11   13 1
    25   11   27 1
    26   11   28 1
    27   12   15 ar
    28   13   29 1
    29   13   30 1
    30   14   15 ar
    31   14   31 1
    32   15   32 1
    33   16   17 1
    34   17   18 1
    35   17   33 1
    36   17   34 1
    37   18   35 1
    38   18   36 1
    39   18   37 1
