@<TRIPOS>MOLECULE
DB09068
   43    45     0     0     0
SMALL
USER_CHARGES

@<TRIPOS>ATOM
      1 S1         -0.1814    0.1208   -1.4813 S.3       1 <0>        -0.0873
      2 N1          2.5100    0.0765    0.0702 N.pl3     1 <0>        -0.3266
      3 N2          4.3280   -2.1046   -0.2253 N.3       1 <0>        -0.3130
      4 C1          3.4911    0.0786   -1.0235 C.3       1 <0>         0.0248
      5 C2          2.8494   -0.7589    1.2274 C.3       1 <0>         0.0248
      6 C3          3.8803   -1.3517   -1.3960 C.3       1 <0>         0.0117
      7 C4          3.2631   -2.1590    0.7748 C.3       1 <0>         0.0117
      8 C5          1.7177    1.2166    0.2459 C.ar      1 <0>         0.0437
      9 C6          0.4691    1.3833   -0.3916 C.ar      1 <0>         0.0337
     10 C7          2.1674    2.2522    1.0907 C.ar      1 <0>        -0.0396
     11 C8         -0.2935    2.5342   -0.1925 C.ar      1 <0>        -0.0462
     12 C9          1.4049    3.4031    1.2899 C.ar      1 <0>        -0.0599
     13 C10        -1.7083   -0.2913   -0.6527 C.ar      1 <0>         0.0157
     14 C11         0.1744    3.5440    0.6483 C.ar      1 <0>        -0.0606
     15 C12        -2.9484   -0.1394   -1.2765 C.ar      1 <0>        -0.0365
     16 C13        -1.6443   -0.7778    0.6545 C.ar      1 <0>        -0.0475
     17 C14        -4.1195   -0.4726   -0.5956 C.ar      1 <0>        -0.0549
     18 C15        -4.0530   -0.9582    0.7103 C.ar      1 <0>        -0.0501
     19 C16        -2.8153   -1.1110    1.3351 C.ar      1 <0>        -0.0578
     20 C17        -3.0718    0.3781   -2.6741 C.3       1 <0>        -0.0386
     21 C18        -5.3046   -1.3144    1.4388 C.3       1 <0>        -0.0397
     22 H1          4.3791    0.6440   -0.7132 H         1 <0>         0.0476
     23 H2          3.0820    0.5748   -1.9120 H         1 <0>         0.0476
     24 H3          1.9863   -0.8465    1.8987 H         1 <0>         0.0476
     25 H4          3.6650   -0.2923    1.7942 H         1 <0>         0.0476
     26 H5          3.0322   -1.8639   -1.8676 H         1 <0>         0.0439
     27 H6          4.6888   -1.3236   -2.1344 H         1 <0>         0.0439
     28 H7          3.6143   -2.7284    1.6423 H         1 <0>         0.0439
     29 H8          2.3964   -2.6955    0.3683 H         1 <0>         0.0439
     30 H9          4.5717   -3.0532   -0.5088 H         1 <0>         0.1220
     31 H10         3.1265    2.1678    1.5974 H         1 <0>         0.0636
     32 H11        -1.2519    2.6744   -0.6859 H         1 <0>         0.0629
     33 H12         1.7698    4.1902    1.9433 H         1 <0>         0.0618
     34 H13        -0.4182    4.4411    0.8018 H         1 <0>         0.0618
     35 H14        -0.6929   -0.9151    1.1627 H         1 <0>         0.0629
     36 H15        -5.0878   -0.3577   -1.0771 H         1 <0>         0.0623
     37 H16        -2.7498   -1.4919    2.3510 H         1 <0>         0.0621
     38 H17        -2.5501   -0.2792   -3.3776 H         1 <0>         0.0278
     39 H18        -4.1170    0.4279   -2.9996 H         1 <0>         0.0278
     40 H19        -2.6663    1.3926   -2.7485 H         1 <0>         0.0278
     41 H20        -5.5863   -2.3488    1.2180 H         1 <0>         0.0278
     42 H21        -5.1775   -1.2102    2.5216 H         1 <0>         0.0278
     43 H22        -6.1297   -0.6549    1.1486 H         1 <0>         0.0278
@<TRIPOS>BOND
     1    1    9 1
     2    1   13 1
     3    2    4 1
     4    2    5 1
     5    2    8 1
     6    3    6 1
     7    3    7 1
     8    3   30 1
     9    4    6 1
    10    4   22 1
    11    4   23 1
    12    5    7 1
    13    5   24 1
    14    5   25 1
    15    6   26 1
    16    6   27 1
    17    7   28 1
    18    7   29 1
    19    8    9 ar
    20    8   10 ar
    21    9   11 ar
    22   10   12 ar
    23   10   31 1
    24   11   14 ar
    25   11   32 1
    26   12   14 ar
    27   12   33 1
    28   13   15 ar
    29   13   16 ar
    30   14   34 1
    31   15   17 ar
    32   15   20 1
    33   16   19 ar
    34   16   35 1
    35   17   18 ar
    36   17   36 1
    37   18   19 ar
    38   18   21 1
    39   19   37 1
    40   20   38 1
    41   20   39 1
    42   20   40 1
    43   21   41 1
    44   21   42 1
    45   21   43 1
