@<TRIPOS>MOLECULE
DB09346
   32    32     0     0     0
SMALL
USER_CHARGES

@<TRIPOS>ATOM
      1 I1          0.4306   -2.7770   -0.6676 I         1 <0>        -0.0399
      2 I2         -3.3135    2.0207   -0.1769 I         1 <0>        -0.0410
      3 I3          2.7358    2.8629   -0.2751 I         1 <0>        -0.0410
      4 O1         -3.8591   -2.2831    0.7259 O.2       1 <0>        -0.2756
      5 O2         -0.4748    3.9285    1.1628 O.3       1 <0>        -0.4771
      6 O3         -0.5616    4.3044   -1.0772 O.2       1 <0>        -0.2451
      7 O4          3.1133   -0.7376    1.7226 O.2       1 <0>        -0.2758
      8 N1         -2.2577   -1.0112   -0.4503 N.am      1 <0>        -0.2728
      9 N2          2.5399   -0.3434   -0.5283 N.am      1 <0>        -0.2840
     10 C1         -1.1505   -0.1514   -0.4111 C.ar      1 <0>         0.0649
     11 C2          1.2420    0.1817   -0.4498 C.ar      1 <0>         0.0625
     12 C3          0.1406   -0.6733   -0.4887 C.ar      1 <0>         0.0580
     13 C4         -1.3404    1.2257   -0.2945 C.ar      1 <0>         0.0508
     14 C5         -0.2390    2.0807   -0.2556 C.ar      1 <0>         0.0886
     15 C6          1.0522    1.5587   -0.3332 C.ar      1 <0>         0.0506
     16 C7         -2.9106   -1.2600   -1.7692 C.3       1 <0>         0.0083
     17 C8         -2.8409   -1.5867    0.7265 C.2       1 <0>         0.2165
     18 C9         -0.4381    3.5256   -0.1333 C.2       1 <0>         0.3389
     19 C10        -2.1441   -1.3556    2.0477 C.3       1 <0>         0.0127
     20 C11         3.3646   -0.7535    0.5219 C.2       1 <0>         0.2141
     21 C12         4.6922   -1.2611    0.0176 C.3       1 <0>         0.0125
     22 H1         -3.9627   -0.9685   -1.7027 H         1 <0>         0.0433
     23 H2         -2.8647   -2.3338   -1.9735 H         1 <0>         0.0433
     24 H3         -2.4083   -0.7042   -2.5657 H         1 <0>         0.0433
     25 H4          2.9489   -0.3165   -1.4599 H         1 <0>         0.1549
     26 H5         -1.9939   -0.2889    2.2281 H         1 <0>         0.0323
     27 H6         -1.1843   -1.8746    2.0698 H         1 <0>         0.0323
     28 H7         -2.7651   -1.7474    2.8594 H         1 <0>         0.0323
     29 H8          4.5356   -2.0292   -0.7452 H         1 <0>         0.0323
     30 H9          5.2597   -1.6973    0.8443 H         1 <0>         0.0323
     31 H10         5.2627   -0.4321   -0.4100 H         1 <0>         0.0323
     32 H11        -0.6089    4.8972    1.2412 H         1 <0>         0.2954
@<TRIPOS>BOND
     1    1   12 1
     2    2   13 1
     3    3   15 1
     4    4   17 2
     5    5   18 1
     6    5   32 1
     7    6   18 2
     8    7   20 2
     9    8   10 1
    10    8   16 1
    11    8   17 am
    12    9   11 1
    13    9   20 am
    14    9   25 1
    15   10   12 ar
    16   10   13 ar
    17   11   12 ar
    18   11   15 ar
    19   13   14 ar
    20   14   15 ar
    21   14   18 1
    22   16   22 1
    23   16   23 1
    24   16   24 1
    25   17   19 1
    26   19   26 1
    27   19   27 1
    28   19   28 1
    29   20   21 1
    30   21   29 1
    31   21   30 1
    32   21   31 1
