@<TRIPOS>MOLECULE
DB09061
   53    54     0     0     0
SMALL
USER_CHARGES

@<TRIPOS>ATOM
      1 O1         -1.1399   -0.8010   -1.8026 O.3       1 <0>        -0.5063
      2 O2         -0.6758    1.1523    2.5522 O.3       1 <0>        -0.5063
      3 C1         -3.3313    0.6447   -0.3291 C.3       1 <0>        -0.0096
      4 C2         -2.4048   -0.1124    0.6638 C.3       1 <0>         0.0158
      5 C3         -4.7641    0.1043   -0.2460 C.3       1 <0>        -0.0420
      6 C4         -4.8122   -1.3908   -0.5681 C.3       1 <0>        -0.0314
      7 C5         -2.6787   -1.6017    0.7059 C.2       1 <0>        -0.0768
      8 C6         -0.9335    0.1699    0.3801 C.ar      1 <0>         0.0427
      9 C7         -3.7458   -2.1875    0.1357 C.2       1 <0>        -0.0759
     10 C8         -3.3338    2.1245   -0.0733 C.2       1 <0>        -0.0757
     11 C9         -0.3833   -0.1935   -0.8457 C.ar      1 <0>         0.1243
     12 C10        -0.1492    0.7903    1.3485 C.ar      1 <0>         0.1243
     13 C11        -3.9452   -3.6741    0.1684 C.3       1 <0>        -0.0438
     14 C12        -2.8653    2.9919   -1.2038 C.3       1 <0>        -0.0437
     15 C13         1.7522    0.6875   -0.1384 C.ar      1 <0>        -0.0405
     16 C14         0.9624    0.0656   -1.1055 C.ar      1 <0>        -0.0165
     17 C15         1.1963    1.0496    1.0886 C.ar      1 <0>        -0.0165
     18 C16         3.1910    0.9646   -0.4163 C.3       1 <0>        -0.0275
     19 C17        -3.7327    2.6407    1.0985 C.2       1 <0>        -0.0994
     20 C18         4.1476   -0.1712   -0.0093 C.3       1 <0>        -0.0491
     21 C19         5.6198    0.1775   -0.2492 C.3       1 <0>        -0.0530
     22 C20         6.5377   -0.9635    0.1910 C.3       1 <0>        -0.0559
     23 C21         8.0025   -0.6084   -0.0085 C.3       1 <0>        -0.0653
     24 H1         -3.0204    0.4927   -1.3678 H         1 <0>         0.0354
     25 H2         -2.6681    0.2175    1.6735 H         1 <0>         0.0399
     26 H3         -5.4226    0.6411   -0.9410 H         1 <0>         0.0274
     27 H4         -5.1816    0.2551    0.7586 H         1 <0>         0.0274
     28 H5         -4.7007   -1.5371   -1.6495 H         1 <0>         0.0310
     29 H6         -5.8037   -1.7700   -0.2926 H         1 <0>         0.0310
     30 H7         -1.9540   -2.2196    1.2326 H         1 <0>         0.0578
     31 H8         -4.8738   -3.9219    0.6926 H         1 <0>         0.0274
     32 H9         -3.1256   -4.1903    0.6792 H         1 <0>         0.0274
     33 H10        -4.0042   -4.0701   -0.8505 H         1 <0>         0.0274
     34 H11        -1.8327    2.7466   -1.4724 H         1 <0>         0.0274
     35 H12        -3.4995    2.8449   -2.0842 H         1 <0>         0.0274
     36 H13        -2.8966    4.0559   -0.9462 H         1 <0>         0.0274
     37 H14         1.3905   -0.2208   -2.0630 H         1 <0>         0.0657
     38 H15         1.8074    1.5328    1.8472 H         1 <0>         0.0657
     39 H16         3.3217    1.1807   -1.4851 H         1 <0>         0.0313
     40 H17         3.4864    1.8879    0.0996 H         1 <0>         0.0313
     41 H18        -3.7273    3.7130    1.2668 H         1 <0>         0.0534
     42 H19        -4.0765    2.0218    1.9197 H         1 <0>         0.0534
     43 H20         3.8907   -1.0804   -0.5677 H         1 <0>         0.0268
     44 H21         3.9997   -0.4050    1.0529 H         1 <0>         0.0268
     45 H22         5.7779    0.3910   -1.3130 H         1 <0>         0.0265
     46 H23         5.8735    1.0890    0.3054 H         1 <0>         0.0265
     47 H24        -1.8760   -1.2972   -1.4241 H         1 <0>         0.2921
     48 H25        -1.2010    0.4109    2.8966 H         1 <0>         0.2921
     49 H26         6.3046   -1.8699   -0.3799 H         1 <0>         0.0263
     50 H27         6.3661   -1.1932    1.2491 H         1 <0>         0.0263
     51 H28         8.2754    0.2751    0.5773 H         1 <0>         0.0230
     52 H29         8.6407   -1.4382    0.3110 H         1 <0>         0.0230
     53 H30         8.2159   -0.4017   -1.0621 H         1 <0>         0.0230
@<TRIPOS>BOND
     1    1   11 1
     2    1   47 1
     3    2   12 1
     4    2   48 1
     5    3    4 1
     6    3    5 1
     7    3   10 1
     8    3   24 1
     9    4    7 1
    10    4    8 1
    11    4   25 1
    12    5    6 1
    13    5   26 1
    14    5   27 1
    15    6    9 1
    16    6   28 1
    17    6   29 1
    18    7    9 2
    19    7   30 1
    20    8   11 ar
    21    8   12 ar
    22    9   13 1
    23   10   14 1
    24   10   19 2
    25   11   16 ar
    26   12   17 ar
    27   13   31 1
    28   13   32 1
    29   13   33 1
    30   14   34 1
    31   14   35 1
    32   14   36 1
    33   15   16 ar
    34   15   17 ar
    35   15   18 1
    36   16   37 1
    37   17   38 1
    38   18   20 1
    39   18   39 1
    40   18   40 1
    41   19   41 1
    42   19   42 1
    43   20   21 1
    44   20   43 1
    45   20   44 1
    46   21   22 1
    47   21   45 1
    48   21   46 1
    49   22   23 1
    50   22   49 1
    51   22   50 1
    52   23   51 1
    53   23   52 1
    54   23   53 1
