@<TRIPOS>MOLECULE
DB09401
   20    21     0     0     0
SMALL
USER_CHARGES

@<TRIPOS>ATOM
      1 O1          0.2381    1.2103    0.6998 O.3       1 <0>        -0.3686
      2 O2         -0.3827   -1.6618   -0.1505 O.3       1 <0>        -0.3686
      3 O3         -2.5309    1.1253    0.5202 O.3       1 <0>        -0.3869
      4 O4          2.5623    0.3016   -1.0268 O.3       1 <0>        -0.3869
      5 C1         -0.3557    0.6866   -0.5005 C.3       1 <0>         0.1152
      6 C2          0.3567   -0.6155   -0.8093 C.3       1 <0>         0.1152
      7 C3         -1.7765    0.2322   -0.2676 C.3       1 <0>         0.1070
      8 C4          1.7073   -0.4372   -0.1629 C.3       1 <0>         0.1070
      9 C5          1.3846    0.4161    1.0475 C.3       1 <0>         0.0767
     10 C6         -1.5756   -1.1010    0.4176 C.3       1 <0>         0.0767
     11 H1         -0.2592    1.4483   -1.2796 H         1 <0>         0.0649
     12 H2          0.3933   -0.8352   -1.8809 H         1 <0>         0.0649
     13 H3         -2.2838    0.0782   -1.2276 H         1 <0>         0.0643
     14 H4          2.1997   -1.3753    0.1092 H         1 <0>         0.0643
     15 H5          1.1017   -0.2027    1.9053 H         1 <0>         0.0586
     16 H6          2.1978    1.0851    1.3430 H         1 <0>         0.0586
     17 H7         -1.4376   -0.9971    1.4997 H         1 <0>         0.0586
     18 H8         -2.4154   -1.7829    0.2531 H         1 <0>         0.0586
     19 H9         -2.5277    1.9867    0.0688 H         1 <0>         0.2100
     20 H10         3.4035    0.4383   -0.5584 H         1 <0>         0.2100
@<TRIPOS>BOND
     1    1    5 1
     2    1    9 1
     3    2    6 1
     4    2   10 1
     5    3    7 1
     6    3   19 1
     7    4    8 1
     8    4   20 1
     9    5    6 1
    10    5    7 1
    11    5   11 1
    12    6    8 1
    13    6   12 1
    14    7   10 1
    15    7   13 1
    16    8    9 1
    17    8   14 1
    18    9   15 1
    19    9   16 1
    20   10   17 1
    21   10   18 1
