@<TRIPOS>MOLECULE
DB09118
   35    36     0     0     0
SMALL
USER_CHARGES

@<TRIPOS>ATOM
      1 O1          2.4481    0.8639    1.9438 O.3       1 <0>        -0.3872
      2 O2         -4.1456   -1.8801    0.1602 O.3       1 <0>        -0.4526
      3 O3         -5.7363   -0.0874   -0.0910 O.3       1 <0>        -0.4526
      4 C1          3.0178   -0.2727   -0.1600 C.3       1 <0>        -0.0081
      5 C2          2.0831    0.7462    0.5664 C.3       1 <0>         0.0785
      6 C3          4.4884    0.1699   -0.0004 C.3       1 <0>        -0.0574
      7 C4          2.8722   -1.6754    0.4623 C.3       1 <0>        -0.0574
      8 C5          2.7127   -0.3607   -1.6684 C.3       1 <0>        -0.0574
      9 C6          0.6184    0.3889    0.5418 C.2       1 <0>        -0.0548
     10 C7         -0.3290    1.1971    0.0398 C.2       1 <0>        -0.0560
     11 C8         -1.7688    0.8929    0.0017 C.ar      1 <0>        -0.0216
     12 C9         -2.1842   -0.4275    0.1118 C.ar      1 <0>        -0.0090
     13 C10        -3.5430   -0.6630    0.0707 C.ar      1 <0>         0.1668
     14 C11        -2.6802    1.9423   -0.1444 C.ar      1 <0>        -0.0509
     15 C12        -4.4515    0.3606   -0.0729 C.ar      1 <0>         0.1663
     16 C13        -4.0511    1.6763   -0.1831 C.ar      1 <0>        -0.0156
     17 C14        -5.5351   -1.5076    0.0576 C.3       1 <0>         0.2332
     18 H1          2.2243    1.7381    0.1169 H         1 <0>         0.0643
     19 H2          4.8114    0.1428    1.0458 H         1 <0>         0.0236
     20 H3          4.6347    1.1896   -0.3737 H         1 <0>         0.0236
     21 H4          5.1624   -0.4879   -0.5615 H         1 <0>         0.0236
     22 H5          3.5996   -2.3707    0.0266 H         1 <0>         0.0236
     23 H6          3.0462   -1.6596    1.5437 H         1 <0>         0.0236
     24 H7          1.8807   -2.1035    0.2830 H         1 <0>         0.0236
     25 H8          1.6964   -0.7258   -1.8517 H         1 <0>         0.0236
     26 H9          3.4027   -1.0452   -2.1746 H         1 <0>         0.0236
     27 H10         2.8065    0.6216   -2.1444 H         1 <0>         0.0236
     28 H11         0.3534   -0.5528    1.0124 H         1 <0>         0.0598
     29 H12        -0.0376    2.1561   -0.3826 H         1 <0>         0.0621
     30 H13         3.2509    1.4098    1.9916 H         1 <0>         0.2102
     31 H14        -1.5076   -1.2687    0.2049 H         1 <0>         0.0661
     32 H15        -2.3422    2.9724   -0.2283 H         1 <0>         0.0625
     33 H16        -4.7700    2.4798   -0.2961 H         1 <0>         0.0655
     34 H17        -6.0560   -1.8433    0.9616 H         1 <0>         0.1166
     35 H18        -5.9717   -2.0165   -0.8095 H         1 <0>         0.1166
@<TRIPOS>BOND
     1    1    5 1
     2    1   30 1
     3    2   13 1
     4    2   17 1
     5    3   15 1
     6    3   17 1
     7    4    5 1
     8    4    6 1
     9    4    7 1
    10    4    8 1
    11    5    9 1
    12    5   18 1
    13    6   19 1
    14    6   20 1
    15    6   21 1
    16    7   22 1
    17    7   23 1
    18    7   24 1
    19    8   25 1
    20    8   26 1
    21    8   27 1
    22    9   10 2
    23    9   28 1
    24   10   11 1
    25   10   29 1
    26   11   12 ar
    27   11   14 ar
    28   12   13 ar
    29   12   31 1
    30   13   15 ar
    31   14   16 ar
    32   14   32 1
    33   15   16 ar
    34   16   33 1
    35   17   34 1
    36   17   35 1
