@<TRIPOS>MOLECULE
DB09403
   33    33     0     0     0
SMALL
USER_CHARGES

@<TRIPOS>ATOM
      1 I1          1.7726    0.2782   -2.9264 I         1 <0>        -0.0399
      2 I2         -0.5062    0.1028    2.7552 I         1 <0>        -0.0418
      3 I3          5.0068   -1.9275    1.7800 I         1 <0>        -0.0419
      4 O1         -3.8949   -2.4320    0.3060 O.3       1 <0>        -0.4804
      5 O2         -1.3541    2.7090   -0.9273 O.2       1 <0>        -0.2756
      6 O3         -3.6891   -1.5263   -1.7643 O.2       1 <0>        -0.2507
      7 N1         -0.2831    0.6337   -0.4597 N.am      1 <0>        -0.2689
      8 N2          4.2194   -1.0275   -1.2635 N.pl3     1 <0>        -0.3563
      9 C1         -1.2838   -0.2492   -0.9935 C.3       1 <0>         0.0325
     10 C2         -2.3235   -0.6492    0.0542 C.3       1 <0>         0.0695
     11 C3          0.9594    0.0368    0.0351 C.ar      1 <0>         0.0644
     12 C4         -3.0100    0.5704    0.6723 C.3       1 <0>        -0.0508
     13 C5         -0.4109    2.0550   -0.4752 C.2       1 <0>         0.2167
     14 C6         -3.3558   -1.5614   -0.5869 C.2       1 <0>         0.3091
     15 C7          1.9619   -0.1951   -0.8608 C.ar      1 <0>         0.0573
     16 C8          1.0313   -0.2483    1.3681 C.ar      1 <0>         0.0369
     17 C9          3.1423   -0.7628   -0.3813 C.ar      1 <0>         0.0530
     18 C10         2.2117   -0.8159    1.8475 C.ar      1 <0>        -0.0318
     19 C11         0.7238    2.8107    0.1777 C.3       1 <0>         0.0127
     20 C12         3.2672   -1.0732    0.9729 C.ar      1 <0>         0.0361
     21 H1         -0.8148   -1.1471   -1.4151 H         1 <0>         0.0476
     22 H2         -1.7778    0.2672   -1.8266 H         1 <0>         0.0476
     23 H3         -1.8408   -1.2811    0.8001 H         1 <0>         0.0426
     24 H4         -3.6614    0.2549    1.4963 H         1 <0>         0.0238
     25 H5         -2.3664    1.3647    1.0404 H         1 <0>         0.0238
     26 H6         -3.6732    1.0351   -0.0689 H         1 <0>         0.0238
     27 H7          2.3090   -1.0580    2.9039 H         1 <0>         0.0639
     28 H8          1.6819    2.5923   -0.2977 H         1 <0>         0.0323
     29 H9          0.7731    2.6148    1.2491 H         1 <0>         0.0323
     30 H10         0.5464    3.8848    0.0534 H         1 <0>         0.0323
     31 H11         4.1325   -0.8031   -2.2457 H         1 <0>         0.1424
     32 H12         5.0722   -1.4387   -0.9085 H         1 <0>         0.1424
     33 H13        -4.5656   -3.0142   -0.1108 H         1 <0>         0.2951
@<TRIPOS>BOND
     1    1   15 1
     2    2   16 1
     3    3   20 1
     4    4   14 1
     5    4   33 1
     6    5   13 2
     7    6   14 2
     8    7    9 1
     9    7   11 1
    10    7   13 am
    11    8   17 1
    12    8   31 1
    13    8   32 1
    14    9   10 1
    15    9   21 1
    16    9   22 1
    17   10   12 1
    18   10   14 1
    19   10   23 1
    20   11   15 ar
    21   11   16 ar
    22   12   24 1
    23   12   25 1
    24   12   26 1
    25   13   19 1
    26   15   17 ar
    27   16   18 ar
    28   17   20 ar
    29   18   20 ar
    30   18   27 1
    31   19   28 1
    32   19   29 1
    33   19   30 1
