@<TRIPOS>MOLECULE
DB09236
   66    67     0     0     0
SMALL
USER_CHARGES

@<TRIPOS>ATOM
      1 O1          1.9280    2.6397   -0.7176 O.3       1 <0>        -0.4616
      2 O2          0.0659   -2.4379   -0.0607 O.3       1 <0>        -0.4616
      3 O3         -3.9585   -0.0117    0.4130 O.3       1 <0>        -0.4558
      4 O4          3.9332    2.6382    0.4395 O.2       1 <0>        -0.2452
      5 O5          1.6948   -3.4381    1.2455 O.2       1 <0>        -0.2452
      6 O6         -2.7002    1.4923   -0.8085 O.2       1 <0>        -0.2456
      7 N1          4.1438   -1.2081   -1.5820 N.pl3     1 <0>        -0.3207
      8 C1          1.9752   -0.2119   -0.0583 C.3       1 <0>         0.0512
      9 C2          3.1038    0.6738   -0.5953 C.2       1 <0>         0.0652
     10 C3          2.2290   -1.7077   -0.2836 C.2       1 <0>         0.0652
     11 C4          1.7648    0.0568    1.4042 C.ar      1 <0>        -0.0279
     12 C5          4.1045    0.1558   -1.3424 C.2       1 <0>         0.0157
     13 C6          3.2703   -2.1350   -1.0340 C.2       1 <0>         0.0157
     14 C7          0.5572    0.5634    1.8853 C.ar      1 <0>        -0.0207
     15 C8          2.8101   -0.2111    2.2882 C.ar      1 <0>        -0.0571
     16 C9          3.0630    2.0955   -0.2162 C.2       1 <0>         0.3375
     17 C10         1.3221   -2.6403    0.4053 C.2       1 <0>         0.3375
     18 C11         5.2286    0.9420   -1.9610 C.3       1 <0>        -0.0260
     19 C12         3.5879   -3.5710   -1.3526 C.3       1 <0>        -0.0260
     20 C13         0.3950    0.8015    3.2501 C.ar      1 <0>        -0.0543
     21 C14         2.6478    0.0270    3.6531 C.ar      1 <0>        -0.0614
     22 C15        -0.5532    0.8536    0.9879 C.2       1 <0>        -0.0476
     23 C16         1.4405    0.5333    4.1339 C.ar      1 <0>        -0.0612
     24 C17        -5.0905    0.2351   -0.4278 C.3       1 <0>         0.1055
     25 C18        -1.7834    0.3033    1.0693 C.2       1 <0>         0.0231
     26 C19        -6.2360   -0.6414    0.0738 C.3       1 <0>        -0.0254
     27 C20        -4.7195   -0.1345   -1.8633 C.3       1 <0>        -0.0254
     28 C21        -5.4603    1.7139   -0.3242 C.3       1 <0>        -0.0254
     29 C22         1.7435    4.0298   -0.4313 C.3       1 <0>         0.0900
     30 C23        -0.9387   -3.2768    0.5188 C.3       1 <0>         0.0900
     31 C24        -2.8349    0.6891    0.1009 C.2       1 <0>         0.3324
     32 C25         0.4425    4.4927   -1.0517 C.3       1 <0>        -0.0306
     33 C26        -2.0350   -3.5087   -0.4992 C.3       1 <0>        -0.0306
     34 H1          1.0909    0.0297   -0.6591 H         1 <0>         0.0452
     35 H2          4.9112   -1.5630   -2.1418 H         1 <0>         0.1516
     36 H3          3.7611   -0.6058    1.9402 H         1 <0>         0.0621
     37 H4          5.3060    0.7145   -3.0300 H         1 <0>         0.0290
     38 H5          5.0934    2.0236   -1.8753 H         1 <0>         0.0290
     39 H6          6.1789    0.6806   -1.4839 H         1 <0>         0.0290
     40 H7          4.5245   -3.8664   -0.8684 H         1 <0>         0.0290
     41 H8          2.8068   -4.2643   -1.0288 H         1 <0>         0.0290
     42 H9          3.7028   -3.7024   -2.4343 H         1 <0>         0.0290
     43 H10        -0.5358    1.2005    3.6465 H         1 <0>         0.0624
     44 H11         3.4617   -0.1815    4.3414 H         1 <0>         0.0618
     45 H12        -0.3409    1.5758    0.2054 H         1 <0>         0.0626
     46 H13         1.3150    0.7199    5.1965 H         1 <0>         0.0618
     47 H14        -2.0310   -0.4196    1.8396 H         1 <0>         0.0689
     48 H15        -7.1438   -0.5079   -0.5235 H         1 <0>         0.0268
     49 H16        -5.9550   -1.7006    0.0457 H         1 <0>         0.0268
     50 H17        -6.4719   -0.4116    1.1192 H         1 <0>         0.0268
     51 H18        -5.6209   -0.2081   -2.4835 H         1 <0>         0.0268
     52 H19        -4.2086   -1.1032   -1.9003 H         1 <0>         0.0268
     53 H20        -4.0739    0.5894   -2.3666 H         1 <0>         0.0268
     54 H21        -6.4591    1.8892   -0.7414 H         1 <0>         0.0268
     55 H22        -4.7904    2.3873   -0.8648 H         1 <0>         0.0268
     56 H23        -5.4708    2.0424    0.7217 H         1 <0>         0.0268
     57 H24         1.7094    4.1777    0.6540 H         1 <0>         0.0695
     58 H25         2.5782    4.6027   -0.8505 H         1 <0>         0.0695
     59 H26        -0.5291   -4.2472    0.8217 H         1 <0>         0.0695
     60 H27        -1.3436   -2.7755    1.4031 H         1 <0>         0.0695
     61 H28         0.2766    5.5569   -0.8622 H         1 <0>         0.0262
     62 H29        -0.4029    3.9275   -0.6466 H         1 <0>         0.0262
     63 H30         0.4493    4.3226   -2.1333 H         1 <0>         0.0262
     64 H31        -2.8334   -4.1279   -0.0811 H         1 <0>         0.0262
     65 H32        -1.6342   -4.0018   -1.3910 H         1 <0>         0.0262
     66 H33        -2.4618   -2.5560   -0.8278 H         1 <0>         0.0262
@<TRIPOS>BOND
     1    1   16 1
     2    1   29 1
     3    2   17 1
     4    2   30 1
     5    3   24 1
     6    3   31 1
     7    4   16 2
     8    5   17 2
     9    6   31 2
    10    7   12 1
    11    7   13 1
    12    7   35 1
    13    8    9 1
    14    8   10 1
    15    8   11 1
    16    8   34 1
    17    9   12 2
    18    9   16 1
    19   10   13 2
    20   10   17 1
    21   11   14 ar
    22   11   15 ar
    23   12   18 1
    24   13   19 1
    25   14   20 ar
    26   14   22 1
    27   15   21 ar
    28   15   36 1
    29   18   37 1
    30   18   38 1
    31   18   39 1
    32   19   40 1
    33   19   41 1
    34   19   42 1
    35   20   23 ar
    36   20   43 1
    37   21   23 ar
    38   21   44 1
    39   22   25 2
    40   22   45 1
    41   23   46 1
    42   24   26 1
    43   24   27 1
    44   24   28 1
    45   25   31 1
    46   25   47 1
    47   26   48 1
    48   26   49 1
    49   26   50 1
    50   27   51 1
    51   27   52 1
    52   27   53 1
    53   28   54 1
    54   28   55 1
    55   28   56 1
    56   29   32 1
    57   29   57 1
    58   29   58 1
    59   30   33 1
    60   30   59 1
    61   30   60 1
    62   32   61 1
    63   32   62 1
    64   32   63 1
    65   33   64 1
    66   33   65 1
    67   33   66 1
