@<TRIPOS>MOLECULE
DB09333
   32    32     0     0     0
SMALL
USER_CHARGES

@<TRIPOS>ATOM
      1 I1         -0.3539   -1.5242   -1.6864 I         1 <0>        -0.0413
      2 I2         -3.7169    3.0210    0.6398 I         1 <0>        -0.0435
      3 I3          2.2179    3.5484    0.5399 I         1 <0>        -0.0416
      4 O1         -5.0959   -2.3810    1.0575 O.3       1 <0>        -0.4806
      5 O2         -5.2500   -1.5155   -1.0369 O.2       1 <0>        -0.2510
      6 N1          1.9047    0.6054   -0.8209 N.2       1 <0>        -0.2384
      7 N2          3.7147   -0.7194    0.0621 N.pl3     1 <0>        -0.3272
      8 C1         -3.0127    0.1232   -0.7583 C.3       1 <0>        -0.0156
      9 C2         -1.7687    0.9079   -0.4641 C.ar      1 <0>        -0.0185
     10 C3         -3.4422   -0.7899    0.3916 C.3       1 <0>         0.0488
     11 C4         -0.5144    0.3866   -0.7814 C.ar      1 <0>         0.0439
     12 C5         -1.8713    2.1652    0.1310 C.ar      1 <0>         0.0187
     13 C6          0.6374    1.1229   -0.5035 C.ar      1 <0>         0.0917
     14 C7         -0.7197    2.9014    0.4090 C.ar      1 <0>        -0.0331
     15 C8          0.5347    2.3803    0.0916 C.ar      1 <0>         0.0408
     16 C9         -4.6738   -1.5893    0.0410 C.2       1 <0>         0.3050
     17 C10         2.4796   -0.0977    0.1040 C.2       1 <0>         0.0841
     18 C11         4.5580   -0.6354   -1.1218 C.3       1 <0>         0.0012
     19 C12         4.3313   -1.2550    1.2676 C.3       1 <0>         0.0012
     20 H1         -3.8430    0.7807   -1.0381 H         1 <0>         0.0319
     21 H2         -2.9163   -0.4526   -1.6846 H         1 <0>         0.0319
     22 H3         -2.6466   -1.4982    0.6451 H         1 <0>         0.0381
     23 H4         -3.6679   -0.2019    1.2875 H         1 <0>         0.0381
     24 H5         -0.7994    3.8823    0.8734 H         1 <0>         0.0639
     25 H6          1.9869   -0.2493    1.0833 H         1 <0>         0.0999
     26 H7          5.0711    0.3312   -1.1493 H         1 <0>         0.0428
     27 H8          3.9621   -0.7411   -2.0346 H         1 <0>         0.0428
     28 H9          5.3133   -1.4280   -1.1340 H         1 <0>         0.0428
     29 H10         5.0244   -2.0691    1.0321 H         1 <0>         0.0428
     30 H11         3.5764   -1.6589    1.9506 H         1 <0>         0.0428
     31 H12         4.8839   -0.4662    1.7878 H         1 <0>         0.0428
     32 H13        -5.9036   -2.8840    0.8190 H         1 <0>         0.2951
@<TRIPOS>BOND
     1    1   11 1
     2    2   12 1
     3    3   15 1
     4    4   16 1
     5    4   32 1
     6    5   16 2
     7    6   13 1
     8    6   17 2
     9    7   17 1
    10    7   18 1
    11    7   19 1
    12    8    9 1
    13    8   10 1
    14    8   20 1
    15    8   21 1
    16    9   11 ar
    17    9   12 ar
    18   10   16 1
    19   10   22 1
    20   10   23 1
    21   11   13 ar
    22   12   14 ar
    23   13   15 ar
    24   14   15 ar
    25   14   24 1
    26   17   25 1
    27   18   26 1
    28   18   27 1
    29   18   28 1
    30   19   29 1
    31   19   30 1
    32   19   31 1
