@<TRIPOS>MOLECULE
DB09085
   43    43     0     0     0
SMALL
USER_CHARGES

@<TRIPOS>ATOM
      1 O1         -2.8866    0.3150    0.2259 O.3       1 <0>        -0.4599
      2 O2         -2.2759    2.5273    0.4037 O.2       1 <0>        -0.2450
      3 N1          3.3252   -0.6037   -0.0977 N.pl3     1 <0>        -0.3438
      4 N2         -6.5283   -0.2607    0.3317 N.3       1 <0>        -0.3051
      5 C1          5.7692   -0.5906   -0.1253 C.3       1 <0>        -0.0377
      6 C2          4.4926    0.2440   -0.0654 C.3       1 <0>         0.0091
      7 C3          7.0369    0.2640   -0.0466 C.3       1 <0>        -0.0545
      8 C4          2.0262   -0.1286   -0.0057 C.ar      1 <0>         0.0272
      9 C5         -5.1126   -0.5821    0.2301 C.3       1 <0>         0.0326
     10 C6         -4.2684    0.6795    0.3124 C.3       1 <0>         0.1054
     11 C7          8.2891   -0.5994   -0.0423 C.3       1 <0>        -0.0652
     12 C8         -0.6110    0.8348    0.1839 C.ar      1 <0>         0.0591
     13 C9          0.9309   -1.0113   -0.0424 C.ar      1 <0>        -0.0401
     14 C10         1.7686    1.2483    0.1282 C.ar      1 <0>        -0.0401
     15 C11        -0.3763   -0.5338    0.0516 C.ar      1 <0>        -0.0460
     16 C12         0.4614    1.7259    0.2223 C.ar      1 <0>        -0.0460
     17 C13        -1.9739    1.3326    0.2833 C.2       1 <0>         0.3392
     18 C14        -7.3404   -1.4793    0.2946 C.3       1 <0>        -0.0129
     19 C15        -6.9319    0.6484   -0.7439 C.3       1 <0>        -0.0129
     20 H1          5.7671   -1.3142    0.7002 H         1 <0>         0.0280
     21 H2          5.7801   -1.1780   -1.0524 H         1 <0>         0.0280
     22 H3          4.5038    0.8330    0.8597 H         1 <0>         0.0461
     23 H4          4.4789    0.9381   -0.9142 H         1 <0>         0.0461
     24 H5          7.0729    0.9530   -0.8982 H         1 <0>         0.0263
     25 H6          7.0186    0.8731    0.8645 H         1 <0>         0.0263
     26 H7          3.4515   -1.6044   -0.2031 H         1 <0>         0.1461
     27 H8         -4.8147   -1.2499    1.0491 H         1 <0>         0.0460
     28 H9         -4.8794   -1.1218   -0.6978 H         1 <0>         0.0460
     29 H10        -4.4435    1.1999    1.2616 H         1 <0>         0.0710
     30 H11        -4.4672    1.3617   -0.5196 H         1 <0>         0.0710
     31 H12         8.2971   -1.2753    0.8186 H         1 <0>         0.0230
     32 H13         9.1828    0.0300    0.0116 H         1 <0>         0.0230
     33 H14         8.3524   -1.2024   -0.9537 H         1 <0>         0.0230
     34 H15         1.0966   -2.0816   -0.1449 H         1 <0>         0.0636
     35 H16         2.5733    1.9780    0.1606 H         1 <0>         0.0636
     36 H17        -1.1798   -1.2642    0.0176 H         1 <0>         0.0626
     37 H18         0.3001    2.7958    0.3248 H         1 <0>         0.0626
     38 H19        -7.0631   -2.1511    1.1146 H         1 <0>         0.0391
     39 H20        -7.2272   -2.0226   -0.6506 H         1 <0>         0.0391
     40 H21        -8.4010   -1.2405    0.4320 H         1 <0>         0.0391
     41 H22        -6.5435    1.6599   -0.5909 H         1 <0>         0.0391
     42 H23        -8.0226    0.7654   -0.7541 H         1 <0>         0.0391
     43 H24        -6.6280    0.2879   -1.7335 H         1 <0>         0.0391
@<TRIPOS>BOND
     1    1   10 1
     2    1   17 1
     3    2   17 2
     4    3    6 1
     5    3    8 1
     6    3   26 1
     7    4    9 1
     8    4   18 1
     9    4   19 1
    10    5    6 1
    11    5    7 1
    12    5   20 1
    13    5   21 1
    14    6   22 1
    15    6   23 1
    16    7   11 1
    17    7   24 1
    18    7   25 1
    19    8   13 ar
    20    8   14 ar
    21    9   10 1
    22    9   27 1
    23    9   28 1
    24   10   29 1
    25   10   30 1
    26   11   31 1
    27   11   32 1
    28   11   33 1
    29   12   15 ar
    30   12   16 ar
    31   12   17 1
    32   13   15 ar
    33   13   34 1
    34   14   16 ar
    35   14   35 1
    36   15   36 1
    37   16   37 1
    38   18   38 1
    39   18   39 1
    40   18   40 1
    41   19   41 1
    42   19   42 1
    43   19   43 1
