@<TRIPOS>MOLECULE
DB09119
   38    40     0     0     0
SMALL
USER_CHARGES

@<TRIPOS>ATOM
      1 O1         -0.7955   -1.5925    1.0681 O.3       1 <0>        -0.4564
      2 O2          0.8192   -1.3823   -2.8486 O.2       1 <0>        -0.2521
      3 O3         -3.0606   -1.1380    1.0729 O.2       1 <0>        -0.2511
      4 N1          0.3284    0.0408   -1.0371 N.am      1 <0>        -0.2240
      5 N2         -1.2813   -0.5624   -2.6715 N.am      1 <0>        -0.3126
      6 C1         -0.5398   -0.3493    1.7157 C.3       1 <0>         0.1337
      7 C2          0.9403   -0.1878    2.0422 C.3       1 <0>         0.0157
      8 C3         -1.0243    0.7999    0.8800 C.ar      1 <0>         0.0148
      9 C4          1.9373   -0.0298    0.9100 C.ar      1 <0>        -0.0217
     10 C5         -0.5836    0.9648   -0.4403 C.ar      1 <0>         0.0495
     11 C6          1.6568    0.0257   -0.4737 C.ar      1 <0>         0.0461
     12 C7         -1.9297    1.7261    1.4220 C.ar      1 <0>        -0.0533
     13 C8          3.2880    0.0120    1.3336 C.ar      1 <0>        -0.0567
     14 C9         -1.0598    2.0482   -1.1998 C.ar      1 <0>        -0.0395
     15 C10         2.7491    0.1157   -1.3680 C.ar      1 <0>        -0.0396
     16 C11        -2.3946    2.7985    0.6614 C.ar      1 <0>        -0.0613
     17 C12         0.0309   -0.6561   -2.2358 C.2       1 <0>         0.3083
     18 C13        -1.9596    2.9596   -0.6496 C.ar      1 <0>        -0.0600
     19 C14         4.3430    0.0973    0.4304 C.ar      1 <0>        -0.0614
     20 C15         4.0720    0.1482   -0.9251 C.ar      1 <0>        -0.0600
     21 C16        -2.1070   -1.8570    0.8067 C.2       1 <0>         0.3045
     22 C17        -2.2234   -3.1882    0.1281 C.3       1 <0>         0.0333
     23 H1         -1.0749   -0.3728    2.6753 H         1 <0>         0.0789
     24 H2          1.2458   -1.0731    2.6172 H         1 <0>         0.0353
     25 H3          1.0559    0.6874    2.6969 H         1 <0>         0.0353
     26 H4         -2.2808    1.6171    2.4453 H         1 <0>         0.0622
     27 H5          3.5226   -0.0340    2.3961 H         1 <0>         0.0621
     28 H6         -0.7206    2.2000   -2.2221 H         1 <0>         0.0636
     29 H7          2.5880    0.2140   -2.4396 H         1 <0>         0.0636
     30 H8         -3.0948    3.5073    1.0934 H         1 <0>         0.0618
     31 H9         -2.3177    3.7956   -1.2432 H         1 <0>         0.0618
     32 H10         5.3677    0.1254    0.7874 H         1 <0>         0.0618
     33 H11         4.8834    0.2275   -1.6425 H         1 <0>         0.0618
     34 H12        -1.5734   -1.0452   -3.5151 H         1 <0>         0.1465
     35 H13        -2.0184   -0.1023   -2.1507 H         1 <0>         0.1465
     36 H14        -1.8764   -3.9773    0.7997 H         1 <0>         0.0342
     37 H15        -1.6412   -3.1864   -0.7969 H         1 <0>         0.0342
     38 H16        -3.2711   -3.3766   -0.1229 H         1 <0>         0.0342
@<TRIPOS>BOND
     1    1    6 1
     2    1   21 1
     3    2   17 2
     4    3   21 2
     5    4   10 1
     6    4   11 1
     7    4   17 am
     8    5   17 am
     9    5   34 1
    10    5   35 1
    11    6    7 1
    12    6    8 1
    13    6   23 1
    14    7    9 1
    15    7   24 1
    16    7   25 1
    17    8   10 ar
    18    8   12 ar
    19    9   11 ar
    20    9   13 ar
    21   10   14 ar
    22   11   15 ar
    23   12   16 ar
    24   12   26 1
    25   13   19 ar
    26   13   27 1
    27   14   18 ar
    28   14   28 1
    29   15   20 ar
    30   15   29 1
    31   16   18 ar
    32   16   30 1
    33   18   31 1
    34   19   20 ar
    35   19   32 1
    36   20   33 1
    37   21   22 1
    38   22   36 1
    39   22   37 1
    40   22   38 1
