@<TRIPOS>MOLECULE
DB09237
   53    54     0     0     0
SMALL
USER_CHARGES

@<TRIPOS>ATOM
      1 Cl1        -3.3429   -2.6452   -1.3433 Cl        1 <0>        -0.0832
      2 O1          2.5999    1.1632    0.0646 O.3       1 <0>        -0.3727
      3 O2          1.4508   -1.3895   -1.0475 O.3       1 <0>        -0.4616
      4 O3         -4.4462    0.8140   -1.0693 O.3       1 <0>        -0.4646
      5 O4         -0.0629   -1.4233   -2.7988 O.2       1 <0>        -0.2452
      6 O5         -4.4183    1.3345    1.1863 O.2       1 <0>        -0.2452
      7 N1         -0.3362    2.2997   -0.1142 N.pl3     1 <0>        -0.3187
      8 N2          6.1965    1.2188    0.8480 N.3       1 <0>        -0.3279
      9 C1         -1.7507   -0.1079   -0.6010 C.3       1 <0>         0.0521
     10 C2         -0.2877    0.1062   -1.0021 C.2       1 <0>         0.0677
     11 C3         -2.4134    1.1658   -0.0665 C.2       1 <0>         0.0652
     12 C4          0.3525    1.2647   -0.7261 C.2       1 <0>         0.0448
     13 C5         -1.6914    2.2837    0.1739 C.2       1 <0>         0.0157
     14 C6         -1.8475   -1.2037    0.4211 C.ar      1 <0>        -0.0168
     15 C7          1.7972    1.5557   -1.0309 C.3       1 <0>         0.0861
     16 C8          0.3585   -0.9899   -1.7424 C.2       1 <0>         0.3376
     17 C9         -2.2341    3.5670    0.7428 C.3       1 <0>        -0.0260
     18 C10        -3.8729    1.1214    0.1192 C.2       1 <0>         0.3373
     19 C11        -2.5478   -2.3827    0.1661 C.ar      1 <0>         0.0450
     20 C12        -1.2149   -1.0204    1.6507 C.ar      1 <0>        -0.0563
     21 C13        -2.6152   -3.3786    1.1407 C.ar      1 <0>        -0.0431
     22 C14        -1.2825   -2.0162    2.6252 C.ar      1 <0>        -0.0614
     23 C15        -1.9827   -3.1951    2.3702 C.ar      1 <0>        -0.0604
     24 C16         3.9807    1.4176   -0.1728 C.3       1 <0>         0.0604
     25 C17         2.1924   -2.4581   -1.6449 C.3       1 <0>         0.0900
     26 C18         4.7736    0.9925    1.0527 C.3       1 <0>         0.0167
     27 C19        -5.8752    0.7336   -1.0510 C.3       1 <0>         0.0820
     28 C20         3.3747   -2.7923   -0.7605 C.3       1 <0>        -0.0306
     29 H1         -2.2655   -0.3482   -1.5367 H         1 <0>         0.0452
     30 H2          0.1754    3.1505    0.0909 H         1 <0>         0.1516
     31 H3          2.1186    1.0295   -1.9380 H         1 <0>         0.0623
     32 H4          1.9333    2.6268   -1.2289 H         1 <0>         0.0623
     33 H5         -1.9348    4.4142    0.1155 H         1 <0>         0.0290
     34 H6         -3.3247    3.5905    0.8031 H         1 <0>         0.0290
     35 H7         -1.8358    3.7292    1.7499 H         1 <0>         0.0290
     36 H8         -0.6611   -0.1145    1.8805 H         1 <0>         0.0621
     37 H9         -3.1567   -4.3033    0.9575 H         1 <0>         0.0632
     38 H10        -0.7898   -1.8738    3.5825 H         1 <0>         0.0618
     39 H11        -2.0351   -3.9704    3.1290 H         1 <0>         0.0618
     40 H12         4.1263    2.4871   -0.3678 H         1 <0>         0.0572
     41 H13         4.3076    0.8504   -1.0529 H         1 <0>         0.0572
     42 H14         2.5460   -2.1485   -2.6347 H         1 <0>         0.0695
     43 H15         1.5466   -3.3374   -1.7474 H         1 <0>         0.0695
     44 H16         4.5936   -0.0677    1.2632 H         1 <0>         0.0444
     45 H17         4.4271    1.5462    1.9328 H         1 <0>         0.0444
     46 H18        -6.2008   -0.0551   -0.3660 H         1 <0>         0.0661
     47 H19        -6.3055    1.6978   -0.7638 H         1 <0>         0.0661
     48 H20        -6.2142    0.4841   -2.0598 H         1 <0>         0.0661
     49 H21         4.0254   -1.9197   -0.6423 H         1 <0>         0.0262
     50 H22         3.0383   -3.0760    0.2422 H         1 <0>         0.0262
     51 H23         3.9599   -3.6137   -1.1834 H         1 <0>         0.0262
     52 H24         6.3676    2.2104    0.6863 H         1 <0>         0.1183
     53 H25         6.7038    0.9762    1.6979 H         1 <0>         0.1183
@<TRIPOS>BOND
     1    1   19 1
     2    2   15 1
     3    2   24 1
     4    3   16 1
     5    3   25 1
     6    4   18 1
     7    4   27 1
     8    5   16 2
     9    6   18 2
    10    7   12 1
    11    7   13 1
    12    7   30 1
    13    8   26 1
    14    8   52 1
    15    8   53 1
    16    9   10 1
    17    9   11 1
    18    9   14 1
    19    9   29 1
    20   10   12 2
    21   10   16 1
    22   11   13 2
    23   11   18 1
    24   12   15 1
    25   13   17 1
    26   14   19 ar
    27   14   20 ar
    28   15   31 1
    29   15   32 1
    30   17   33 1
    31   17   34 1
    32   17   35 1
    33   19   21 ar
    34   20   22 ar
    35   20   36 1
    36   21   23 ar
    37   21   37 1
    38   22   23 ar
    39   22   38 1
    40   23   39 1
    41   24   26 1
    42   24   40 1
    43   24   41 1
    44   25   28 1
    45   25   42 1
    46   25   43 1
    47   26   44 1
    48   26   45 1
    49   27   46 1
    50   27   47 1
    51   27   48 1
    52   28   49 1
    53   28   50 1
    54   28   51 1
