@<TRIPOS>MOLECULE
DB09069
   41    42     0     0     0
SMALL
USER_CHARGES

@<TRIPOS>ATOM
      1 O1          0.0704    1.4125    0.8033 O.3       1 <0>        -0.4910
      2 O2         -2.5079    2.0842    0.0961 O.3       1 <0>        -0.4885
      3 O3         -4.3763    0.0926   -0.3587 O.3       1 <0>        -0.4913
      4 N1          1.9004   -0.5299    0.3425 N.3       1 <0>        -0.2956
      5 N2          4.1259   -0.2864   -1.4984 N.3       1 <0>        -0.3136
      6 C1          3.2590   -0.9262    0.7344 C.3       1 <0>         0.0118
      7 C2          1.7121   -0.6930   -1.1048 C.3       1 <0>         0.0118
      8 C3          4.3038   -0.1316   -0.0528 C.3       1 <0>         0.0087
      9 C4          2.7661    0.1002   -1.8814 C.3       1 <0>         0.0087
     10 C5          0.9012   -1.2947    1.0859 C.3       1 <0>         0.0277
     11 C6         -0.5019   -0.9067    0.7018 C.ar      1 <0>         0.0121
     12 C7         -0.8498    0.4316    0.5769 C.ar      1 <0>         0.1695
     13 C8         -1.4350   -1.9102    0.4755 C.ar      1 <0>        -0.0502
     14 C9         -2.1542    0.7729    0.2192 C.ar      1 <0>         0.2038
     15 C10        -2.7391   -1.5691    0.1178 C.ar      1 <0>        -0.0158
     16 C11        -3.0987   -0.2275   -0.0104 C.ar      1 <0>         0.1652
     17 C12         0.1749    1.9056    2.1368 C.3       1 <0>         0.0790
     18 C13        -1.8011    2.8566   -0.8715 C.3       1 <0>         0.0791
     19 C14        -5.2795   -0.9898   -0.5755 C.3       1 <0>         0.0790
     20 H1          3.4163   -2.0012    0.5724 H         1 <0>         0.0439
     21 H2          3.4084   -0.7307    1.8032 H         1 <0>         0.0439
     22 H3          0.7390   -0.3298   -1.4497 H         1 <0>         0.0439
     23 H4          1.7765   -1.7535   -1.3859 H         1 <0>         0.0439
     24 H5          4.2553    0.9310    0.2180 H         1 <0>         0.0437
     25 H6          5.3044   -0.4852    0.2190 H         1 <0>         0.0437
     26 H7          2.6380   -0.0850   -2.9536 H         1 <0>         0.0437
     27 H8          2.6238    1.1769   -1.7229 H         1 <0>         0.0437
     28 H9          1.0152   -1.1232    2.1636 H         1 <0>         0.0477
     29 H10         1.0522   -2.3705    0.9217 H         1 <0>         0.0477
     30 H11         4.7985    0.3014   -1.9894 H         1 <0>         0.1220
     31 H12        -1.1682   -2.9589    0.5732 H         1 <0>         0.0623
     32 H13        -3.4190   -2.3984   -0.0443 H         1 <0>         0.0655
     33 H14         1.0112    2.6090    2.1757 H         1 <0>         0.0660
     34 H15         0.3676    1.0956    2.8465 H         1 <0>         0.0660
     35 H16        -0.7399    2.4365    2.4182 H         1 <0>         0.0660
     36 H17        -1.3967    2.2393   -1.6816 H         1 <0>         0.0660
     37 H18        -0.9993    3.4209   -0.3873 H         1 <0>         0.0660
     38 H19        -2.5028    3.5737   -1.3077 H         1 <0>         0.0660
     39 H20        -5.4373   -1.5728    0.3382 H         1 <0>         0.0660
     40 H21        -4.9667   -1.6135   -1.4198 H         1 <0>         0.0660
     41 H22        -6.2470   -0.5530   -0.8446 H         1 <0>         0.0660
@<TRIPOS>BOND
     1    1   12 1
     2    1   17 1
     3    2   14 1
     4    2   18 1
     5    3   16 1
     6    3   19 1
     7    4    6 1
     8    4    7 1
     9    4   10 1
    10    5    8 1
    11    5    9 1
    12    5   30 1
    13    6    8 1
    14    6   20 1
    15    6   21 1
    16    7    9 1
    17    7   22 1
    18    7   23 1
    19    8   24 1
    20    8   25 1
    21    9   26 1
    22    9   27 1
    23   10   11 1
    24   10   28 1
    25   10   29 1
    26   11   12 ar
    27   11   13 ar
    28   12   14 ar
    29   13   15 ar
    30   13   31 1
    31   14   16 ar
    32   15   16 ar
    33   15   32 1
    34   17   33 1
    35   17   34 1
    36   17   35 1
    37   18   36 1
    38   18   37 1
    39   18   38 1
    40   19   39 1
    41   19   40 1
    42   19   41 1
