@<TRIPOS>MOLECULE
DB09039
   65    67     0     0     0
SMALL
USER_CHARGES

@<TRIPOS>ATOM
      1 O1         -2.5745   -0.4731    2.6460 O.3       1 <0>        -0.3853
      2 O2         -0.5520    1.7249   -1.3246 O.2       1 <0>        -0.2758
      3 O3          1.3104   -3.5915   -0.5412 O.3       1 <0>        -0.4849
      4 O4          3.2293   -2.3883    1.2420 O.3       1 <0>        -0.4849
      5 N1         -4.8729   -0.0562   -0.0399 N.3       1 <0>        -0.3005
      6 N2         -1.6228    1.5967    0.7332 N.am      1 <0>        -0.3084
      7 C1         -4.5722   -0.4418   -1.4184 C.3       1 <0>        -0.0010
      8 C2         -6.2593    0.4090   -0.0697 C.3       1 <0>        -0.0010
      9 C3         -3.9578    0.9562    0.4659 C.3       1 <0>         0.0201
     10 C4         -5.8337   -1.1749   -1.8495 C.3       1 <0>        -0.0390
     11 C5         -6.9431   -0.6132   -0.9657 C.3       1 <0>        -0.0390
     12 C6         -2.4948    0.4889    0.4182 C.3       1 <0>         0.0658
     13 C7         -2.1844   -0.7483    1.2964 C.3       1 <0>         0.0997
     14 C8         -0.7579   -1.2094    1.2800 C.ar      1 <0>        -0.0137
     15 C9         -0.7170    2.1246   -0.1753 C.2       1 <0>         0.2134
     16 C10         0.0673    3.2779    0.4251 C.3       1 <0>         0.0240
     17 C11         1.4688    3.4024   -0.1683 C.3       1 <0>        -0.0448
     18 C12        -0.3521   -2.1882    0.3724 C.ar      1 <0>        -0.0106
     19 C13         2.2761    2.1200    0.0365 C.3       1 <0>        -0.0526
     20 C14         0.1630   -0.6546    2.1692 C.ar      1 <0>        -0.0524
     21 C15         3.6689    2.2330   -0.5880 C.3       1 <0>        -0.0531
     22 C16         0.9768   -2.6129    0.3583 C.ar      1 <0>         0.1624
     23 C17         4.4605    0.9349   -0.4150 C.3       1 <0>        -0.0533
     24 C18         1.4949   -1.0691    2.1467 C.ar      1 <0>        -0.0159
     25 C19         1.9046   -2.0377    1.2302 C.ar      1 <0>         0.1621
     26 C20         5.8543    0.9864   -1.0440 C.3       1 <0>        -0.0559
     27 C21         2.5765   -4.1843   -0.2395 C.3       1 <0>         0.1237
     28 C22         3.6011   -3.1085    0.0635 C.3       1 <0>         0.1237
     29 C23         6.6181   -0.3245   -0.9366 C.3       1 <0>        -0.0653
     30 H1         -4.0519    1.8810   -0.1215 H         1 <0>         0.0446
     31 H2         -4.2311    1.2277    1.4932 H         1 <0>         0.0446
     32 H3         -3.7100   -1.1104   -1.5025 H         1 <0>         0.0426
     33 H4         -4.4114    0.4312   -2.0640 H         1 <0>         0.0426
     34 H5         -6.3456    1.4076   -0.5168 H         1 <0>         0.0426
     35 H6         -6.7076    0.4340    0.9285 H         1 <0>         0.0426
     36 H7         -6.0449   -1.0200   -2.9124 H         1 <0>         0.0278
     37 H8         -5.7359   -2.2538   -1.6798 H         1 <0>         0.0278
     38 H9         -7.3862   -1.4196   -0.3694 H         1 <0>         0.0278
     39 H10        -7.7419   -0.1565   -1.5587 H         1 <0>         0.0278
     40 H11        -2.2478    0.2076   -0.6114 H         1 <0>         0.0540
     41 H12        -2.8122   -1.5891    0.9748 H         1 <0>         0.0663
     42 H13        -1.6927    2.0005    1.6628 H         1 <0>         0.1491
     43 H14         0.1459    3.1536    1.5117 H         1 <0>         0.0358
     44 H15        -0.4983    4.1977    0.2380 H         1 <0>         0.0358
     45 H16         1.9850    4.2483    0.3006 H         1 <0>         0.0270
     46 H17         1.3966    3.6231   -1.2402 H         1 <0>         0.0270
     47 H18        -3.5457   -0.4887    2.6828 H         1 <0>         0.2103
     48 H19        -1.0671   -2.6257   -0.3200 H         1 <0>         0.0659
     49 H20         2.3731    1.9182    1.1103 H         1 <0>         0.0265
     50 H21         1.7671    1.2577   -0.4065 H         1 <0>         0.0265
     51 H22        -0.1286    0.1133    2.8807 H         1 <0>         0.0622
     52 H23         4.2166    3.0620   -0.1240 H         1 <0>         0.0265
     53 H24         3.5760    2.4629   -1.6562 H         1 <0>         0.0265
     54 H25         4.5554    0.7039    0.6533 H         1 <0>         0.0265
     55 H26         3.8967    0.1105   -0.8683 H         1 <0>         0.0265
     56 H27         2.2083   -0.6226    2.8340 H         1 <0>         0.0655
     57 H28         6.4393    1.7798   -0.5639 H         1 <0>         0.0263
     58 H29         5.7650    1.2544   -2.1036 H         1 <0>         0.0263
     59 H30         2.8862   -4.7694   -1.1110 H         1 <0>         0.0731
     60 H31         2.4491   -4.8710    0.6066 H         1 <0>         0.0731
     61 H32         4.5829   -3.5573    0.2437 H         1 <0>         0.0731
     62 H33         3.6967   -2.3988   -0.7670 H         1 <0>         0.0731
     63 H34         6.0825   -1.1309   -1.4474 H         1 <0>         0.0230
     64 H35         6.7532   -0.6122    0.1108 H         1 <0>         0.0230
     65 H36         7.6071   -0.2277   -1.3951 H         1 <0>         0.0230
@<TRIPOS>BOND
     1    1   13 1
     2    1   47 1
     3    2   15 2
     4    3   22 1
     5    3   27 1
     6    4   25 1
     7    4   28 1
     8    5    7 1
     9    5    8 1
    10    5    9 1
    11    6   12 1
    12    6   15 am
    13    6   42 1
    14    7   10 1
    15    7   32 1
    16    7   33 1
    17    8   11 1
    18    8   34 1
    19    8   35 1
    20    9   12 1
    21    9   30 1
    22    9   31 1
    23   10   11 1
    24   10   36 1
    25   10   37 1
    26   11   38 1
    27   11   39 1
    28   12   13 1
    29   12   40 1
    30   13   14 1
    31   13   41 1
    32   14   18 ar
    33   14   20 ar
    34   15   16 1
    35   16   17 1
    36   16   43 1
    37   16   44 1
    38   17   19 1
    39   17   45 1
    40   17   46 1
    41   18   22 ar
    42   18   48 1
    43   19   21 1
    44   19   49 1
    45   19   50 1
    46   20   24 ar
    47   20   51 1
    48   21   23 1
    49   21   52 1
    50   21   53 1
    51   22   25 ar
    52   23   26 1
    53   23   54 1
    54   23   55 1
    55   24   25 ar
    56   24   56 1
    57   26   29 1
    58   26   57 1
    59   26   58 1
    60   27   28 1
    61   27   59 1
    62   27   60 1
    63   28   61 1
    64   28   62 1
    65   29   63 1
    66   29   64 1
    67   29   65 1
