@<TRIPOS>MOLECULE
DB09291
   61    64     0     0     0
SMALL
USER_CHARGES

@<TRIPOS>ATOM
      1 F1          4.3227   -2.9717   -0.0742 F         1 <0>        -0.1659
      2 F2          6.2581   -2.1562    0.4676 F         1 <0>        -0.1659
      3 F3          4.6999   -2.3425    1.9729 F         1 <0>        -0.1659
      4 F4          4.4997    4.1306    1.0881 F         1 <0>        -0.1659
      5 F5          4.8424    2.8834    2.8291 F         1 <0>        -0.1659
      6 F6          6.3875    3.0747    1.3110 F         1 <0>        -0.1659
      7 O1          0.7490    0.3927   -1.5601 O.3       1 <0>        -0.3701
      8 O2         -6.2285    3.0909   -0.4197 O.2       1 <0>        -0.2758
      9 N1         -2.0081    0.4174   -1.0656 N.3       1 <0>        -0.3029
     10 N2         -4.3390    1.8704    0.2298 N.am      1 <0>        -0.3085
     11 C1         -3.9797    0.4793    0.4504 C.3       1 <0>         0.0475
     12 C2         -3.0341    0.3227    1.6474 C.3       1 <0>        -0.0284
     13 C3         -1.0390    0.1422    0.0207 C.3       1 <0>         0.0682
     14 C4         -1.6157    0.7958    1.3088 C.3       1 <0>        -0.0264
     15 C5         -3.3468   -0.1219   -0.8183 C.3       1 <0>         0.0181
     16 C6         -5.3519   -0.1453    0.7406 C.3       1 <0>        -0.0222
     17 C7         -6.3296    0.6883   -0.0841 C.3       1 <0>         0.0259
     18 C8          0.2578    0.9053   -0.3381 C.3       1 <0>         0.0708
     19 C9         -0.6638   -1.3503    0.1378 C.ar      1 <0>        -0.0252
     20 C10        -5.6754    2.0463   -0.1122 C.2       1 <0>         0.2135
     21 C11        -0.2464   -1.8613    1.3617 C.ar      1 <0>        -0.0567
     22 C12        -0.7469   -2.1708   -0.9816 C.ar      1 <0>        -0.0567
     23 C13         1.9485    1.0453   -1.9642 C.3       1 <0>         0.0809
     24 C14         0.0926   -3.2101    1.4676 C.ar      1 <0>        -0.0614
     25 C15        -0.4081   -3.5198   -0.8755 C.ar      1 <0>        -0.0614
     26 C16         0.0115   -4.0394    0.3491 C.ar      1 <0>        -0.0617
     27 C17         3.0057    0.8456   -0.9045 C.ar      1 <0>        -0.0181
     28 C18         2.3878    0.5053   -3.3207 C.3       1 <0>        -0.0345
     29 C19         3.5103    1.9474   -0.2328 C.ar      1 <0>        -0.0445
     30 C20         3.4512   -0.4360   -0.6233 C.ar      1 <0>        -0.0445
     31 C21         4.4865    1.7628    0.7463 C.ar      1 <0>         0.0557
     32 C22         4.4277   -0.6208    0.3558 C.ar      1 <0>         0.0557
     33 C23         4.9453    0.4788    1.0406 C.ar      1 <0>        -0.0385
     34 C24         4.9174   -1.9939    0.6714 C.3       1 <0>         0.4174
     35 C25         5.0399    2.9384    1.4788 C.3       1 <0>         0.4174
     36 H1         -3.4033    0.8913    2.5102 H         1 <0>         0.0287
     37 H2         -2.9986   -0.7299    1.9544 H         1 <0>         0.0287
     38 H3         -0.9645    0.6527    2.1773 H         1 <0>         0.0288
     39 H4         -1.6542    1.8864    1.1717 H         1 <0>         0.0288
     40 H5         -3.3222   -1.2150   -0.7487 H         1 <0>         0.0445
     41 H6         -3.9630    0.1126   -1.6949 H         1 <0>         0.0445
     42 H7         -5.4080   -1.2113    0.4986 H         1 <0>         0.0291
     43 H8         -5.6084   -0.0358    1.8028 H         1 <0>         0.0291
     44 H9         -1.6526    0.1230   -1.9721 H         1 <0>         0.1229
     45 H10        -3.6683    2.6325    0.2323 H         1 <0>         0.1493
     46 H11        -7.3155    0.7379    0.3844 H         1 <0>         0.0359
     47 H12        -6.4185    0.3135   -1.1082 H         1 <0>         0.0359
     48 H13         0.0579    1.9800   -0.4461 H         1 <0>         0.0582
     49 H14         0.9722    0.7725    0.4824 H         1 <0>         0.0582
     50 H15        -0.1493   -1.2483    2.2499 H         1 <0>         0.0621
     51 H16        -1.0484   -1.8117   -1.9594 H         1 <0>         0.0621
     52 H17         1.7316    2.1140   -2.0937 H         1 <0>         0.0643
     53 H18         0.4247   -3.6139    2.4195 H         1 <0>         0.0618
     54 H19        -0.4659   -4.1651   -1.7473 H         1 <0>         0.0618
     55 H20         0.2780   -5.0890    0.4309 H         1 <0>         0.0618
     56 H21         1.6244    0.7276   -4.0748 H         1 <0>         0.0258
     57 H22         3.3345    0.9501   -3.6447 H         1 <0>         0.0258
     58 H23         2.4972   -0.5846   -3.3147 H         1 <0>         0.0258
     59 H24         3.1479    2.9446   -0.4662 H         1 <0>         0.0627
     60 H25         3.0376   -1.2924   -1.1481 H         1 <0>         0.0627
     61 H26         5.7062    0.3350    1.8041 H         1 <0>         0.0629
@<TRIPOS>BOND
     1    1   34 1
     2    2   34 1
     3    3   34 1
     4    4   35 1
     5    5   35 1
     6    6   35 1
     7    7   18 1
     8    7   23 1
     9    8   20 2
    10    9   13 1
    11    9   15 1
    12    9   44 1
    13   10   11 1
    14   10   20 am
    15   10   45 1
    16   11   12 1
    17   11   15 1
    18   11   16 1
    19   12   14 1
    20   12   36 1
    21   12   37 1
    22   13   14 1
    23   13   18 1
    24   13   19 1
    25   14   38 1
    26   14   39 1
    27   15   40 1
    28   15   41 1
    29   16   17 1
    30   16   42 1
    31   16   43 1
    32   17   20 1
    33   17   46 1
    34   17   47 1
    35   18   48 1
    36   18   49 1
    37   19   21 ar
    38   19   22 ar
    39   21   24 ar
    40   21   50 1
    41   22   25 ar
    42   22   51 1
    43   23   27 1
    44   23   28 1
    45   23   52 1
    46   24   26 ar
    47   24   53 1
    48   25   26 ar
    49   25   54 1
    50   26   55 1
    51   27   29 ar
    52   27   30 ar
    53   28   56 1
    54   28   57 1
    55   28   58 1
    56   29   31 ar
    57   29   59 1
    58   30   32 ar
    59   30   60 1
    60   31   33 ar
    61   31   35 1
    62   32   33 ar
    63   32   34 1
    64   33   61 1
