@<TRIPOS>MOLECULE
DB09020
   46    48     0     0     0
SMALL
USER_CHARGES

@<TRIPOS>ATOM
      1 O1         -5.1517    0.9607    0.0087 O.3       1 <0>        -0.4260
      2 O2          4.2628    2.4938    0.3953 O.3       1 <0>        -0.4260
      3 O3         -4.1647    2.9863   -0.6256 O.2       1 <0>        -0.2507
      4 O4          5.2488    1.1009   -1.2069 O.2       1 <0>        -0.2507
      5 N1          0.9058   -2.3765   -1.0792 N.ar      1 <0>        -0.2589
      6 C1          0.0036   -1.1815    0.8240 C.3       1 <0>         0.0513
      7 C2         -1.3588   -0.6149    0.6083 C.ar      1 <0>        -0.0339
      8 C3          1.1706   -0.1749    0.7064 C.ar      1 <0>        -0.0339
      9 C4          0.2957   -2.5119    0.0936 C.ar      1 <0>         0.0530
     10 C5         -2.0229    0.0230    1.6562 C.ar      1 <0>        -0.0542
     11 C6          2.2494   -0.3417    1.5313 C.ar      1 <0>        -0.0542
     12 C7         -1.9694   -0.7238   -0.6410 C.ar      1 <0>        -0.0542
     13 C8          1.0621    0.8300   -0.2163 C.ar      1 <0>        -0.0542
     14 C9         -0.0916   -3.6617    0.7091 C.ar      1 <0>        -0.0395
     15 C10        -3.2977    0.5520    1.4544 C.ar      1 <0>        -0.0189
     16 C11         3.3020    0.5675    1.4255 C.ar      1 <0>        -0.0189
     17 C12        -3.2442   -0.1945   -0.8427 C.ar      1 <0>        -0.0189
     18 C13         2.1147    1.7390   -0.3223 C.ar      1 <0>        -0.0189
     19 C14        -3.9083    0.4433    0.2049 C.ar      1 <0>         0.1316
     20 C15         3.2347    1.6078    0.4987 C.ar      1 <0>         0.1316
     21 C16         0.1857   -4.8407    0.0263 C.ar      1 <0>        -0.0586
     22 C17         1.1587   -3.5433   -1.7135 C.ar      1 <0>         0.0279
     23 C18         0.8225   -4.7890   -1.2087 C.ar      1 <0>        -0.0436
     24 C19        -5.1557    2.2964   -0.4256 C.2       1 <0>         0.3092
     25 C20         5.2525    2.1194   -0.5282 C.2       1 <0>         0.3092
     26 C21        -6.5659    2.7721   -0.6119 C.3       1 <0>         0.0336
     27 C22         6.3361    3.1557   -0.5683 C.3       1 <0>         0.0336
     28 H1          0.0153   -1.4600    1.8920 H         1 <0>         0.0461
     29 H2         -1.5598    0.1182    2.6348 H         1 <0>         0.0622
     30 H3          2.3093   -1.1500    2.2528 H         1 <0>         0.0622
     31 H4         -1.4773   -1.2007   -1.4828 H         1 <0>         0.0622
     32 H5          0.2143    0.9502   -0.8797 H         1 <0>         0.0622
     33 H6         -0.5900   -3.6862    1.6703 H         1 <0>         0.0636
     34 H7         -3.8093    1.0479    2.2748 H         1 <0>         0.0654
     35 H8          4.1718    0.4594    2.0679 H         1 <0>         0.0654
     36 H9         -3.7131   -0.2799   -1.8192 H         1 <0>         0.0654
     37 H10         2.0576    2.5454   -1.0486 H         1 <0>         0.0654
     38 H11        -0.0949   -5.7980    0.4552 H         1 <0>         0.0619
     39 H12         1.6567   -3.4485   -2.6730 H         1 <0>         0.0829
     40 H13         1.0482   -5.6953   -1.7590 H         1 <0>         0.0633
     41 H14        -7.0653    2.1592   -1.3663 H         1 <0>         0.0342
     42 H15        -6.5563    3.8103   -0.9556 H         1 <0>         0.0342
     43 H16        -7.1003    2.7235    0.3399 H         1 <0>         0.0342
     44 H17         5.9167    4.1162   -0.8775 H         1 <0>         0.0342
     45 H18         7.0975    2.8568   -1.2943 H         1 <0>         0.0342
     46 H19         6.8042    3.2381    0.4157 H         1 <0>         0.0342
@<TRIPOS>BOND
     1    1   19 1
     2    1   24 1
     3    2   20 1
     4    2   25 1
     5    3   24 2
     6    4   25 2
     7    5    9 ar
     8    5   22 ar
     9    6    7 1
    10    6    8 1
    11    6    9 1
    12    6   28 1
    13    7   10 ar
    14    7   12 ar
    15    8   11 ar
    16    8   13 ar
    17    9   14 ar
    18   10   15 ar
    19   10   29 1
    20   11   16 ar
    21   11   30 1
    22   12   17 ar
    23   12   31 1
    24   13   18 ar
    25   13   32 1
    26   14   21 ar
    27   14   33 1
    28   15   19 ar
    29   15   34 1
    30   16   20 ar
    31   16   35 1
    32   17   19 ar
    33   17   36 1
    34   18   20 ar
    35   18   37 1
    36   21   23 ar
    37   21   38 1
    38   22   23 ar
    39   22   39 1
    40   23   40 1
    41   24   26 1
    42   25   27 1
    43   26   41 1
    44   26   42 1
    45   26   43 1
    46   27   44 1
    47   27   45 1
    48   27   46 1
