@<TRIPOS>MOLECULE
DB11145
   18    19     0     0     0
SMALL
USER_CHARGES

@<TRIPOS>ATOM
      1 O1         -1.6366    2.3695   -0.0000 O.3       1 <0>        -0.5046
      2 N1          1.0156    1.6309   -0.0000 N.ar      1 <0>        -0.2513
      3 C1          0.3727   -0.6915   -0.0001 C.ar      1 <0>         0.0040
      4 C2          0.0586    0.6836   -0.0001 C.ar      1 <0>         0.1122
      5 C3         -1.2849    1.0486   -0.0000 C.ar      1 <0>         0.1427
      6 C4         -0.6519   -1.6533   -0.0000 C.ar      1 <0>        -0.0523
      7 C5          1.7248   -1.0596   -0.0000 C.ar      1 <0>        -0.0510
      8 C6         -2.3035    0.0926   -0.0000 C.ar      1 <0>        -0.0180
      9 C7         -1.9870   -1.2601   -0.0000 C.ar      1 <0>        -0.0576
     10 C8          2.7131   -0.0858   -0.0000 C.ar      1 <0>        -0.0430
     11 C9          2.3087    1.2337   -0.0000 C.ar      1 <0>         0.0284
     12 H1         -0.4149   -2.7150    0.0001 H         1 <0>         0.0624
     13 H2          2.0154   -2.1077    0.0000 H         1 <0>         0.0625
     14 H3         -3.3480    0.3929    0.0001 H         1 <0>         0.0655
     15 H4         -2.7756   -2.0063    0.0001 H         1 <0>         0.0619
     16 H5          3.7634   -0.3525    0.0000 H         1 <0>         0.0633
     17 H6          3.0366    2.0383    0.0002 H         1 <0>         0.0830
     18 H7         -2.6065    2.4418    0.0000 H         1 <0>         0.2922
@<TRIPOS>BOND
     1    1    5 1
     2    1   18 1
     3    2    4 ar
     4    2   11 ar
     5    3    4 ar
     6    3    6 ar
     7    3    7 ar
     8    4    5 ar
     9    5    8 ar
    10    6    9 ar
    11    6   12 1
    12    7   10 ar
    13    7   13 1
    14    8    9 ar
    15    8   14 1
    16    9   15 1
    17   10   11 ar
    18   10   16 1
    19   11   17 1
