@<TRIPOS>MOLECULE
DB11622
   63    66     0     0     0
SMALL
USER_CHARGES

@<TRIPOS>ATOM
      1 O1         -1.0289    2.0719    1.0872 O.2       1 <0>        -0.2968
      2 O2          1.5267   -3.1626   -0.3305 O.2       1 <0>        -0.2971
      3 O3          5.6504   -0.5895    3.2004 O.2       1 <0>        -0.2974
      4 O4         -6.4076   -1.1296    2.8875 O.3       1 <0>        -0.4806
      5 O5         -7.1925   -1.1544    0.7569 O.2       1 <0>        -0.2510
      6 C1         -0.2184   -0.9215   -0.4436 C.3       1 <0>        -0.0189
      7 C2         -1.0021    0.3945   -0.6550 C.3       1 <0>         0.0327
      8 C3          1.2660   -0.7914   -0.8066 C.3       1 <0>         0.0249
      9 C4          1.9182    0.2907    0.1146 C.3       1 <0>        -0.0189
     10 C5          3.4570    0.4675   -0.1784 C.3       1 <0>        -0.0242
     11 C6         -2.4191   -0.0867   -0.2729 C.3       1 <0>        -0.0261
     12 C7         -1.0766   -1.9469   -1.1821 C.3       1 <0>        -0.0484
     13 C8          4.1804   -0.9159   -0.0347 C.3       1 <0>        -0.0220
     14 C9          1.1283    1.6186    0.1252 C.3       1 <0>         0.0104
     15 C10        -2.5203   -1.4818   -0.9289 C.3       1 <0>        -0.0488
     16 C11        -0.3710    1.4063    0.2899 C.2       1 <0>         0.1400
     17 C12         2.0482   -2.0901   -0.6276 C.2       1 <0>         0.1373
     18 C13         3.5339   -2.0045   -0.8999 C.3       1 <0>         0.0098
     19 C14         4.1408    1.4737    0.7930 C.3       1 <0>        -0.0404
     20 C15        -3.5779    0.8213   -0.6657 C.3       1 <0>        -0.0397
     21 C16        -0.9534    0.9676   -2.0858 C.3       1 <0>        -0.0523
     22 C17         3.6930    1.0234   -1.6071 C.3       1 <0>        -0.0590
     23 C18         4.2667   -1.4057    1.4240 C.3       1 <0>         0.0095
     24 C19         4.1620    1.0221    2.2446 C.3       1 <0>         0.0063
     25 C20         4.8046   -0.3370    2.3435 C.2       1 <0>         0.1337
     26 C21        -4.9181    0.1726   -0.2653 C.3       1 <0>        -0.0401
     27 C22        -3.3958    2.2049   -0.0346 C.3       1 <0>        -0.0621
     28 C23        -5.0199   -0.1585    1.2249 C.3       1 <0>         0.0450
     29 C24        -6.3169   -0.8607    1.5587 C.2       1 <0>         0.3047
     30 H1         -0.2593   -1.1943    0.6246 H         1 <0>         0.0317
     31 H2          1.3564   -0.5262   -1.8641 H         1 <0>         0.0383
     32 H3          1.8261   -0.1005    1.1381 H         1 <0>         0.0317
     33 H4         -2.4138   -0.2197    0.8171 H         1 <0>         0.0313
     34 H5         -0.9307   -2.9650   -0.8101 H         1 <0>         0.0268
     35 H6         -0.8575   -1.9516   -2.2559 H         1 <0>         0.0268
     36 H7          5.2161   -0.7923   -0.3837 H         1 <0>         0.0314
     37 H8          1.2816    2.1936   -0.7920 H         1 <0>         0.0345
     38 H9          1.4582    2.2427    0.9629 H         1 <0>         0.0345
     39 H10        -3.0621   -1.4596   -1.8812 H         1 <0>         0.0268
     40 H11        -3.0417   -2.1829   -0.2678 H         1 <0>         0.0268
     41 H12         3.9902   -2.9801   -0.6968 H         1 <0>         0.0345
     42 H13         3.6730   -1.8047   -1.9673 H         1 <0>         0.0345
     43 H14         3.6727    2.4622    0.7268 H         1 <0>         0.0275
     44 H15         5.1823    1.6192    0.4716 H         1 <0>         0.0275
     45 H16        -3.6101    0.9533   -1.7545 H         1 <0>         0.0301
     46 H17         0.0704    1.1261   -2.4376 H         1 <0>         0.0239
     47 H18        -1.4394    0.3097   -2.8134 H         1 <0>         0.0239
     48 H19        -1.4389    1.9459   -2.1509 H         1 <0>         0.0239
     49 H20         4.7650    1.0707   -1.8336 H         1 <0>         0.0235
     50 H21         3.2321    0.4121   -2.3864 H         1 <0>         0.0235
     51 H22         3.3021    2.0406   -1.7126 H         1 <0>         0.0235
     52 H23         4.9350   -2.2734    1.4792 H         1 <0>         0.0345
     53 H24         3.2933   -1.7192    1.8157 H         1 <0>         0.0345
     54 H25         3.1574    0.9702    2.6742 H         1 <0>         0.0342
     55 H26         4.7447    1.7324    2.8413 H         1 <0>         0.0342
     56 H27        -5.7377    0.8510   -0.5376 H         1 <0>         0.0273
     57 H28        -5.0880   -0.7352   -0.8571 H         1 <0>         0.0273
     58 H29        -3.3071    2.1623    1.0539 H         1 <0>         0.0233
     59 H30        -2.5830    2.7793   -0.4808 H         1 <0>         0.0233
     60 H31        -4.2957    2.8022   -0.2321 H         1 <0>         0.0233
     61 H32        -4.2274   -0.8408    1.5421 H         1 <0>         0.0378
     62 H33        -4.9734    0.7563    1.8240 H         1 <0>         0.0378
     63 H34        -7.2485   -1.5823    3.1120 H         1 <0>         0.2951
@<TRIPOS>BOND
     1    1   16 2
     2    2   17 2
     3    3   25 2
     4    4   29 1
     5    4   63 1
     6    5   29 2
     7    6    7 1
     8    6    8 1
     9    6   12 1
    10    6   30 1
    11    7   11 1
    12    7   16 1
    13    7   21 1
    14    8    9 1
    15    8   17 1
    16    8   31 1
    17    9   10 1
    18    9   14 1
    19    9   32 1
    20   10   13 1
    21   10   19 1
    22   10   22 1
    23   11   15 1
    24   11   20 1
    25   11   33 1
    26   12   15 1
    27   12   34 1
    28   12   35 1
    29   13   18 1
    30   13   23 1
    31   13   36 1
    32   14   16 1
    33   14   37 1
    34   14   38 1
    35   15   39 1
    36   15   40 1
    37   17   18 1
    38   18   41 1
    39   18   42 1
    40   19   24 1
    41   19   43 1
    42   19   44 1
    43   20   26 1
    44   20   27 1
    45   20   45 1
    46   21   46 1
    47   21   47 1
    48   21   48 1
    49   22   49 1
    50   22   50 1
    51   22   51 1
    52   23   25 1
    53   23   52 1
    54   23   53 1
    55   24   25 1
    56   24   54 1
    57   24   55 1
    58   26   28 1
    59   26   56 1
    60   26   57 1
    61   27   58 1
    62   27   59 1
    63   27   60 1
    64   28   29 1
    65   28   61 1
    66   28   62 1
