@<TRIPOS>MOLECULE
DB11285
   30    30     0     0     0
SMALL
USER_CHARGES

@<TRIPOS>ATOM
      1 O1          3.3392   -1.7649   -0.8418 O.3       1 <0>        -0.4914
      2 O2         -3.4542   -0.0978    0.0140 O.3       1 <0>        -0.4618
      3 O3          5.2203    0.1631   -0.1564 O.3       1 <0>        -0.5033
      4 O4         -3.0189    2.1664   -0.1322 O.2       1 <0>        -0.2456
      5 C1          1.1752    1.0987   -0.1495 C.ar      1 <0>        -0.0211
      6 C2          1.5889   -0.1873   -0.4970 C.ar      1 <0>        -0.0092
      7 C3          2.9471   -0.5059   -0.5000 C.ar      1 <0>         0.1618
      8 C4          2.1193    2.0661    0.1949 C.ar      1 <0>        -0.0509
      9 C5          3.8911    0.4617   -0.1556 C.ar      1 <0>         0.1585
     10 C6          3.4773    1.7476    0.1919 C.ar      1 <0>        -0.0160
     11 C7         -0.2408    1.4311   -0.1454 C.2       1 <0>        -0.0477
     12 C8         -1.2520    0.5368   -0.0788 C.2       1 <0>         0.0231
     13 C9         -4.8618    0.1624    0.0323 C.3       1 <0>         0.0900
     14 C10        -2.6577    1.0018   -0.0711 C.2       1 <0>         0.3319
     15 C11        -5.6052   -1.1527    0.1290 C.3       1 <0>        -0.0306
     16 C12         3.4460   -2.7192    0.2128 C.3       1 <0>         0.0790
     17 H1          0.8857   -0.9617   -0.7910 H         1 <0>         0.0661
     18 H2          1.8156    3.0733    0.4700 H         1 <0>         0.0625
     19 H3          4.2022    2.5106    0.4624 H         1 <0>         0.0655
     20 H4         -0.4715    2.4935   -0.1889 H         1 <0>         0.0626
     21 H5         -1.0884   -0.5325   -0.0069 H         1 <0>         0.0689
     22 H6         -5.1057    0.7903    0.8967 H         1 <0>         0.0695
     23 H7         -5.1487    0.6833   -0.8880 H         1 <0>         0.0695
     24 H8         -6.6865   -0.9905    0.1454 H         1 <0>         0.0262
     25 H9         -5.3572   -1.7988   -0.7195 H         1 <0>         0.0262
     26 H10        -5.3149   -1.6936    1.0357 H         1 <0>         0.0262
     27 H11         2.4739   -2.8702    0.6928 H         1 <0>         0.0660
     28 H12         4.1844   -2.3953    0.9530 H         1 <0>         0.0660
     29 H13         3.7751   -3.6694   -0.2167 H         1 <0>         0.0660
     30 H14         5.7225    0.9530    0.1080 H         1 <0>         0.2923
@<TRIPOS>BOND
     1    1    7 1
     2    1   16 1
     3    2   13 1
     4    2   14 1
     5    3    9 1
     6    3   30 1
     7    4   14 2
     8    5    6 ar
     9    5    8 ar
    10    5   11 1
    11    6    7 ar
    12    6   17 1
    13    7    9 ar
    14    8   10 ar
    15    8   18 1
    16    9   10 ar
    17   10   19 1
    18   11   12 2
    19   11   20 1
    20   12   14 1
    21   12   21 1
    22   13   15 1
    23   13   22 1
    24   13   23 1
    25   15   24 1
    26   15   25 1
    27   15   26 1
    28   16   27 1
    29   16   28 1
    30   16   29 1
