@<TRIPOS>MOLECULE
DB11207
   38    38     0     0     0
SMALL
USER_CHARGES

@<TRIPOS>ATOM
      1 O1          1.8135    0.1992    0.0597 O.3       1 <0>        -0.4616
      2 O2          1.0746   -1.8622   -0.6767 O.2       1 <0>        -0.2456
      3 O3         -6.8054    1.0953    0.1687 O.3       1 <0>        -0.4951
      4 C1          5.5738    0.5868    0.2835 C.3       1 <0>        -0.0436
      5 C2          4.0757    0.9186    0.3761 C.3       1 <0>        -0.0162
      6 C3          3.1658   -0.2279   -0.0482 C.3       1 <0>         0.0930
      7 C4          5.8924   -0.6268    1.1599 C.3       1 <0>        -0.0626
      8 C5          6.0233    0.3185   -1.1534 C.3       1 <0>        -0.0626
      9 C6          0.8699   -0.7232   -0.2879 C.2       1 <0>         0.3319
     10 C7         -2.9424   -0.3126   -0.2374 C.ar      1 <0>        -0.0246
     11 C8         -0.4622   -0.1012   -0.1134 C.2       1 <0>         0.0231
     12 C9         -1.5648   -0.8151   -0.3816 C.2       1 <0>        -0.0478
     13 C10        -3.1669    1.0542   -0.2094 C.ar      1 <0>        -0.0511
     14 C11        -3.9866   -1.2173   -0.1323 C.ar      1 <0>        -0.0511
     15 C12        -5.5332    0.6313    0.0347 C.ar      1 <0>         0.1201
     16 C13        -4.4712    1.5294   -0.0724 C.ar      1 <0>        -0.0194
     17 C14        -5.2908   -0.7419    0.0048 C.ar      1 <0>        -0.0194
     18 C15        -7.8439    0.1223    0.2731 C.3       1 <0>         0.0788
     19 H1          6.1334    1.4500    0.6649 H         1 <0>         0.0297
     20 H2          3.8545    1.8015   -0.2376 H         1 <0>         0.0300
     21 H3          3.8247    1.2117    1.4039 H         1 <0>         0.0300
     22 H4          3.3612   -0.5149   -1.0865 H         1 <0>         0.0697
     23 H5          3.3043   -1.0985    0.6009 H         1 <0>         0.0697
     24 H6          6.9777   -0.7587    1.2370 H         1 <0>         0.0232
     25 H7          5.4854   -1.5573    0.7515 H         1 <0>         0.0232
     26 H8          5.5052   -0.4934    2.1756 H         1 <0>         0.0232
     27 H9          5.5810   -0.5948   -1.5631 H         1 <0>         0.0232
     28 H10         7.1119    0.2025   -1.1956 H         1 <0>         0.0232
     29 H11         5.7522    1.1540   -1.8072 H         1 <0>         0.0232
     30 H12        -0.4837    0.9182    0.2533 H         1 <0>         0.0689
     31 H13        -1.4789   -1.8447   -0.7216 H         1 <0>         0.0626
     32 H14        -2.3747    1.7890   -0.3111 H         1 <0>         0.0625
     33 H15        -3.8126   -2.2900   -0.1526 H         1 <0>         0.0625
     34 H16        -4.6549    2.6003   -0.0543 H         1 <0>         0.0654
     35 H17        -6.0683   -1.4942    0.0832 H         1 <0>         0.0654
     36 H18        -8.7884    0.6673    0.3732 H         1 <0>         0.0660
     37 H19        -7.7317   -0.4909    1.1737 H         1 <0>         0.0660
     38 H20        -7.9197   -0.4844   -0.6356 H         1 <0>         0.0660
@<TRIPOS>BOND
     1    1    6 1
     2    1    9 1
     3    2    9 2
     4    3   15 1
     5    3   18 1
     6    4    5 1
     7    4    7 1
     8    4    8 1
     9    4   19 1
    10    5    6 1
    11    5   20 1
    12    5   21 1
    13    6   22 1
    14    6   23 1
    15    7   24 1
    16    7   25 1
    17    7   26 1
    18    8   27 1
    19    8   28 1
    20    8   29 1
    21    9   11 1
    22   10   12 1
    23   10   13 ar
    24   10   14 ar
    25   11   12 2
    26   11   30 1
    27   12   31 1
    28   13   16 ar
    29   13   32 1
    30   14   17 ar
    31   14   33 1
    32   15   16 ar
    33   15   17 ar
    34   16   34 1
    35   17   35 1
    36   18   36 1
    37   18   37 1
    38   18   38 1
