@<TRIPOS>MOLECULE
DB11735
   24    23     0     0     0
SMALL
USER_CHARGES

@<TRIPOS>ATOM
      1 O1          0.4418    1.2040   -1.1417 O.3       1 <0>        -0.3865
      2 O2         -0.9866   -1.2898    1.1158 O.3       1 <0>        -0.3861
      3 O3          1.7492    0.8574    1.3276 O.3       1 <0>        -0.3869
      4 O4         -2.3911   -0.7506   -1.3092 O.3       1 <0>        -0.3819
      5 O5          4.0659   -0.2426    0.3169 O.3       1 <0>        -0.3924
      6 O6         -4.3575   -0.7030    0.4834 O.2       1 <0>        -0.2982
      7 C1          0.3507   -0.0259   -0.4147 C.3       1 <0>         0.1118
      8 C2         -0.9281   -0.0271    0.4412 C.3       1 <0>         0.1159
      9 C3          1.6666   -0.1975    0.3582 C.3       1 <0>         0.1065
     10 C4         -2.2535    0.2313   -0.2879 C.3       1 <0>         0.1381
     11 C5          2.9152   -0.1022   -0.5120 C.3       1 <0>         0.0727
     12 C6         -3.4731    0.1388    0.6060 C.2       1 <0>         0.1512
     13 H1          0.2925   -0.8327   -1.1551 H         1 <0>         0.0647
     14 H2         -0.8388    0.7364    1.2234 H         1 <0>         0.0650
     15 H3          1.6681   -1.1391    0.9174 H         1 <0>         0.0643
     16 H4         -2.2484    1.2201   -0.7580 H         1 <0>         0.0697
     17 H5          2.9987    0.8722   -1.0028 H         1 <0>         0.0584
     18 H6          2.9336   -0.8847   -1.2766 H         1 <0>         0.0584
     19 H7          0.3358    1.9348   -0.5094 H         1 <0>         0.2100
     20 H8         -1.1237   -1.9762    0.4403 H         1 <0>         0.2100
     21 H9         -3.5295    0.9004    1.4030 H         1 <0>         0.1055
     22 H10         1.8514    1.6990    0.8521 H         1 <0>         0.2100
     23 H11        -3.1595   -0.5027   -1.8515 H         1 <0>         0.2105
     24 H12         4.0204   -1.1201    0.7336 H         1 <0>         0.2095
@<TRIPOS>BOND
     1    1    7 1
     2    1   19 1
     3    2    8 1
     4    2   20 1
     5    3    9 1
     6    3   22 1
     7    4   10 1
     8    4   23 1
     9    5   11 1
    10    5   24 1
    11    6   12 2
    12    7    8 1
    13    7    9 1
    14    7   13 1
    15    8   10 1
    16    8   14 1
    17    9   11 1
    18    9   15 1
    19   10   12 1
    20   10   16 1
    21   11   17 1
    22   11   18 1
    23   12   21 1
