@<TRIPOS>MOLECULE
DB11750
   56    59     0     0     0
SMALL
USER_CHARGES

@<TRIPOS>ATOM
      1 Cl1         5.8214   -2.5074    1.5065 Cl        1 <0>        -0.1173
      2 F1         -1.5661   -0.3616    1.5820 F         1 <0>        -0.2377
      3 O1          2.7998   -0.6708    1.9400 O.3       1 <0>        -0.3802
      4 O2         -0.8427   -2.1185   -1.4692 O.3       1 <0>        -0.3886
      5 O3          3.8172   -1.9175   -0.8813 O.2       1 <0>        -0.2931
      6 O4         -6.3883    0.0729    2.1767 O.2       1 <0>        -0.2879
      7 C1          1.4952   -0.5394   -0.1321 C.3       1 <0>         0.0095
      8 C2          0.7271    0.7213    0.3220 C.3       1 <0>        -0.0263
      9 C3         -0.6910    0.8152   -0.2623 C.3       1 <0>         0.0003
     10 C4         -1.5184   -0.4342    0.1981 C.3       1 <0>         0.1526
     11 C5          2.8698   -0.2845    0.5612 C.3       1 <0>         0.1329
     12 C6          1.7165    1.8470    0.0373 C.3       1 <0>        -0.0436
     13 C7          0.7020   -1.7653    0.3688 C.3       1 <0>        -0.0151
     14 C8          3.0750    1.2628    0.5031 C.3       1 <0>        -0.0072
     15 C9         -0.7728   -1.7709   -0.0952 C.3       1 <0>         0.0910
     16 C10        -3.0216   -0.3596   -0.2820 C.3       1 <0>         0.0443
     17 C11        -1.3674    2.1251    0.1825 C.3       1 <0>        -0.0432
     18 C12         1.6905   -0.6176   -1.6716 C.3       1 <0>        -0.0562
     19 C13        -2.8187    2.2107   -0.2741 C.3       1 <0>        -0.0301
     20 C14        -3.5831    0.9919    0.1756 C.2       1 <0>        -0.0532
     21 C15         3.9938   -1.1412    0.0564 C.2       1 <0>         0.1798
     22 C16         4.2122    1.7717   -0.3773 C.3       1 <0>        -0.0594
     23 C17        -3.1993   -0.4551   -1.8148 C.3       1 <0>        -0.0493
     24 C18        -3.8191   -1.5137    0.3082 C.2       1 <0>        -0.0674
     25 C19        -4.6604    1.1237    0.9652 C.2       1 <0>        -0.0148
     26 C20         5.3153   -0.9788    0.7717 C.3       1 <0>         0.0838
     27 C21        -4.8914   -1.3891    1.0964 C.2       1 <0>        -0.0180
     28 C22        -5.3954   -0.0546    1.4684 C.2       1 <0>         0.1787
     29 H1          0.6120    0.6869    1.4178 H         1 <0>         0.0311
     30 H2         -0.6424    0.8399   -1.3542 H         1 <0>         0.0336
     31 H3          1.7269    2.1020   -1.0288 H         1 <0>         0.0272
     32 H4          1.4743    2.7584    0.5940 H         1 <0>         0.0272
     33 H5          0.6825   -1.7851    1.4649 H         1 <0>         0.0297
     34 H6          1.1978   -2.6869    0.0407 H         1 <0>         0.0297
     35 H7          3.2576    1.6357    1.5206 H         1 <0>         0.0330
     36 H8         -1.2548   -2.5774    0.4710 H         1 <0>         0.0626
     37 H9         -0.8228    2.9854   -0.2244 H         1 <0>         0.0272
     38 H10        -1.3250    2.2145    1.2761 H         1 <0>         0.0272
     39 H11         2.4990    0.0211   -2.0368 H         1 <0>         0.0236
     40 H12         1.8806   -1.6403   -2.0134 H         1 <0>         0.0236
     41 H13         0.8005   -0.3043   -2.2220 H         1 <0>         0.0236
     42 H14        -2.8664    2.2973   -1.3658 H         1 <0>         0.0310
     43 H15        -3.2618    3.1315    0.1246 H         1 <0>         0.0310
     44 H16         5.1896    1.5701    0.0671 H         1 <0>         0.0233
     45 H17         4.1908    1.3337   -1.3788 H         1 <0>         0.0233
     46 H18         4.1434    2.8595   -0.4925 H         1 <0>         0.0233
     47 H19        -2.4896    0.1723   -2.3620 H         1 <0>         0.0242
     48 H20        -3.0897   -1.4775   -2.1900 H         1 <0>         0.0242
     49 H21        -4.2057   -0.1335   -2.1147 H         1 <0>         0.0242
     50 H22         2.7005   -1.6365    1.9928 H         1 <0>         0.2108
     51 H23        -3.5090   -2.5238    0.0493 H         1 <0>         0.0583
     52 H24        -1.4871   -2.8411   -1.5581 H         1 <0>         0.2099
     53 H25        -5.0242    2.0968    1.2780 H         1 <0>         0.0656
     54 H26         5.2683   -0.2311    1.5662 H         1 <0>         0.0509
     55 H27         6.0748   -0.6722    0.0471 H         1 <0>         0.0509
     56 H28        -5.4200   -2.2579    1.4711 H         1 <0>         0.0653
@<TRIPOS>BOND
     1    1   26 1
     2    2   10 1
     3    3   11 1
     4    3   50 1
     5    4   15 1
     6    4   52 1
     7    5   21 2
     8    6   28 2
     9    7    8 1
    10    7   11 1
    11    7   13 1
    12    7   18 1
    13    8    9 1
    14    8   12 1
    15    8   29 1
    16    9   10 1
    17    9   17 1
    18    9   30 1
    19   10   15 1
    20   10   16 1
    21   11   14 1
    22   11   21 1
    23   12   14 1
    24   12   31 1
    25   12   32 1
    26   13   15 1
    27   13   33 1
    28   13   34 1
    29   14   22 1
    30   14   35 1
    31   15   36 1
    32   16   20 1
    33   16   23 1
    34   16   24 1
    35   17   19 1
    36   17   37 1
    37   17   38 1
    38   18   39 1
    39   18   40 1
    40   18   41 1
    41   19   20 1
    42   19   42 1
    43   19   43 1
    44   20   25 2
    45   21   26 1
    46   22   44 1
    47   22   45 1
    48   22   46 1
    49   23   47 1
    50   23   48 1
    51   23   49 1
    52   24   27 2
    53   24   51 1
    54   25   28 1
    55   25   53 1
    56   26   54 1
    57   26   55 1
    58   27   28 1
    59   27   56 1
