@<TRIPOS>MOLECULE
DB11327
   24    25     0     0     0
SMALL
USER_CHARGES

@<TRIPOS>ATOM
      1 S1         -0.6089    2.2347   -0.5240 S.3       1 <0>         0.0237
      2 S2          0.4504    1.9838    1.2215 S.3       1 <0>         0.0237
      3 O1         -0.4099   -0.5900   -1.4947 O.3       1 <0>        -0.6190
      4 O2          1.0871   -0.7618    2.2300 O.3       1 <0>        -0.6190
      5 N1         -1.5226   -0.3357   -0.9236 N.ar      1 <0>        -0.1645
      6 N2          1.8721   -0.3770    1.3000 N.ar      1 <0>        -0.1645
      7 C1         -1.8088    0.9136   -0.4079 C.ar      1 <0>         0.2648
      8 C2          1.7400    0.8652    0.7045 C.ar      1 <0>         0.2648
      9 C3         -3.0271    1.1727    0.2114 C.ar      1 <0>         0.0191
     10 C4          2.6082    1.2647   -0.3093 C.ar      1 <0>         0.0191
     11 C5         -2.4688   -1.3368   -0.8170 C.ar      1 <0>         0.1839
     12 C6          2.8793   -1.2226    0.8768 C.ar      1 <0>         0.1839
     13 C7         -3.9725    0.1579    0.3131 C.ar      1 <0>        -0.0493
     14 C8          3.6187    0.4057   -0.7275 C.ar      1 <0>        -0.0493
     15 C9         -3.6946   -1.1033   -0.2024 C.ar      1 <0>         0.0034
     16 C10         3.7571   -0.8439   -0.1335 C.ar      1 <0>         0.0034
     17 H1         -3.2587    2.1531    0.6191 H         1 <0>         0.0690
     18 H2          2.5261    2.2407   -0.7801 H         1 <0>         0.0690
     19 H3         -2.1797   -2.2877   -1.2404 H         1 <0>         0.1390
     20 H4          2.9225   -2.1748    1.3854 H         1 <0>         0.1390
     21 H5         -4.9267    0.3498    0.7948 H         1 <0>         0.0622
     22 H6          4.3008    0.7112   -1.5154 H         1 <0>         0.0622
     23 H7         -4.4275   -1.9003   -0.1263 H         1 <0>         0.0677
     24 H8          4.5438   -1.5193   -0.4546 H         1 <0>         0.0677
@<TRIPOS>BOND
     1    1    2 1
     2    1    7 1
     3    2    8 1
     4    3    5 1
     5    4    6 1
     6    5    7 ar
     7    5   11 ar
     8    6    8 ar
     9    6   12 ar
    10    7    9 ar
    11    8   10 ar
    12    9   13 ar
    13    9   17 1
    14   10   14 ar
    15   10   18 1
    16   11   15 ar
    17   11   19 1
    18   12   16 ar
    19   12   20 1
    20   13   15 ar
    21   13   21 1
    22   14   16 ar
    23   14   22 1
    24   15   23 1
    25   16   24 1
