@<TRIPOS>MOLECULE
DB11328
   49    48     0     0     0
SMALL
USER_CHARGES

@<TRIPOS>ATOM
      1 S1         -2.9665    2.5494    1.1450 S.o2      1 <0>         0.2078
      2 O1         -2.6438    1.2629    0.1967 O.3       1 <0>        -0.2125
      3 O2         -3.6705    3.6114    0.1263 O.3       1 <0>        -0.2311
      4 O3         -3.9708    2.1350    2.1069 O.2       1 <0>        -0.1181
      5 O4         -1.7167    3.1295    1.6003 O.2       1 <0>        -0.1181
      6 C1          1.6713    1.0213    0.1005 C.3       1 <0>        -0.0412
      7 C2          0.1470    0.8652   -0.1112 C.3       1 <0>        -0.0478
      8 C3         -0.6334    0.2114    1.0398 C.3       1 <0>        -0.0240
      9 C4         -2.1396    0.0621    0.7863 C.3       1 <0>         0.0900
     10 C5          2.4270   -0.3268    0.0739 C.3       1 <0>        -0.0502
     11 C6          2.2095    2.0576   -0.9123 C.3       1 <0>        -0.0531
     12 C7         -2.4830   -1.1000   -0.1598 C.3       1 <0>        -0.0219
     13 C8          3.9075   -0.2483    0.4617 C.3       1 <0>        -0.0531
     14 C9         -3.9701   -1.2581   -0.5254 C.3       1 <0>        -0.0443
     15 C10         2.1365    1.6028   -2.3629 C.3       1 <0>        -0.0650
     16 C11         4.5918   -1.6184    0.4954 C.3       1 <0>        -0.0559
     17 C12        -4.8499   -1.4967    0.7018 C.3       1 <0>        -0.0626
     18 C13        -4.1381   -2.4171   -1.5125 C.3       1 <0>        -0.0626
     19 C14         6.0796   -1.5473    0.8054 C.3       1 <0>        -0.0653
     20 H1          1.8140    1.4586    1.0983 H         1 <0>         0.0301
     21 H2         -0.2775    1.8572   -0.3023 H         1 <0>         0.0269
     22 H3         -0.0216    0.2784   -1.0216 H         1 <0>         0.0269
     23 H4         -0.4855    0.8287    1.9341 H         1 <0>         0.0291
     24 H5         -0.2145   -0.7717    1.2803 H         1 <0>         0.0291
     25 H6         -2.6342   -0.1176    1.7479 H         1 <0>         0.0621
     26 H7          1.9427   -1.0131    0.7787 H         1 <0>         0.0268
     27 H8          2.3282   -0.7970   -0.9113 H         1 <0>         0.0268
     28 H9          1.6523    2.9969   -0.8067 H         1 <0>         0.0265
     29 H10         3.2503    2.3016   -0.6702 H         1 <0>         0.0265
     30 H11        -2.1134   -2.0349    0.2813 H         1 <0>         0.0293
     31 H12        -1.9332   -0.9607   -1.0994 H         1 <0>         0.0293
     32 H13         4.0018    0.2264    1.4459 H         1 <0>         0.0265
     33 H14         4.4398    0.3888   -0.2533 H         1 <0>         0.0265
     34 H15        -4.3161   -0.3438   -1.0229 H         1 <0>         0.0296
     35 H16         1.1102    1.3902   -2.6747 H         1 <0>         0.0230
     36 H17         2.7488    0.7148   -2.5419 H         1 <0>         0.0230
     37 H18         2.5175    2.3957   -3.0155 H         1 <0>         0.0230
     38 H19         4.4588   -2.1141   -0.4737 H         1 <0>         0.0263
     39 H20         4.1020   -2.2505    1.2455 H         1 <0>         0.0263
     40 H21        -4.5076   -2.3662    1.2729 H         1 <0>         0.0232
     41 H22        -4.8480   -0.6287    1.3676 H         1 <0>         0.0232
     42 H23        -5.8894   -1.6748    0.4059 H         1 <0>         0.0232
     43 H24        -3.8178   -3.3666   -1.0703 H         1 <0>         0.0232
     44 H25        -5.1853   -2.5209   -1.8158 H         1 <0>         0.0232
     45 H26        -3.5455   -2.2467   -2.4177 H         1 <0>         0.0232
     46 H27         6.6077   -0.9567    0.0501 H         1 <0>         0.0230
     47 H28         6.2520   -1.0875    1.7836 H         1 <0>         0.0230
     48 H29         6.5140   -2.5517    0.8185 H         1 <0>         0.0230
     49 H30        -3.9381    4.4698    0.5310 H         1 <0>         0.2469
@<TRIPOS>BOND
     1    1    2 1
     2    1    3 1
     3    1    4 2
     4    1    5 2
     5    2    9 1
     6    3   49 1
     7    6    7 1
     8    6   10 1
     9    6   11 1
    10    6   20 1
    11    7    8 1
    12    7   21 1
    13    7   22 1
    14    8    9 1
    15    8   23 1
    16    8   24 1
    17    9   12 1
    18    9   25 1
    19   10   13 1
    20   10   26 1
    21   10   27 1
    22   11   15 1
    23   11   28 1
    24   11   29 1
    25   12   14 1
    26   12   30 1
    27   12   31 1
    28   13   16 1
    29   13   32 1
    30   13   33 1
    31   14   17 1
    32   14   18 1
    33   14   34 1
    34   15   35 1
    35   15   36 1
    36   15   37 1
    37   16   19 1
    38   16   38 1
    39   16   39 1
    40   17   40 1
    41   17   41 1
    42   17   42 1
    43   18   43 1
    44   18   44 1
    45   18   45 1
    46   19   46 1
    47   19   47 1
    48   19   48 1
