@<TRIPOS>MOLECULE
DB11932
   26    27     0     0     0
SMALL
USER_CHARGES

@<TRIPOS>ATOM
      1 N1          1.3235    1.1493   -0.3300 N.ar      1 <0>        -0.2532
      2 N2         -1.3235   -1.1493   -0.3300 N.ar      1 <0>        -0.2532
      3 C1          0.7216   -0.0189   -0.0128 C.ar      1 <0>         0.0891
      4 C2         -0.7216    0.0189   -0.0128 C.ar      1 <0>         0.0891
      5 C3          3.4497    0.0342   -0.0451 C.ar      1 <0>        -0.0323
      6 C4         -3.4497   -0.0342   -0.0451 C.ar      1 <0>        -0.0323
      7 C5          1.4043   -1.1846    0.2950 C.ar      1 <0>        -0.0339
      8 C6         -1.4044    1.1846    0.2950 C.ar      1 <0>        -0.0339
      9 C7          2.7943   -1.1491    0.2763 C.ar      1 <0>        -0.0553
     10 C8         -2.7942    1.1491    0.2763 C.ar      1 <0>        -0.0553
     11 C9          2.6754    1.1453   -0.3381 C.ar      1 <0>         0.0312
     12 C10        -2.6754   -1.1453   -0.3380 C.ar      1 <0>         0.0312
     13 C11         4.9350    0.1046   -0.0735 C.3       1 <0>        -0.0383
     14 C12        -4.9350   -0.1046   -0.0735 C.3       1 <0>        -0.0383
     15 H1          0.9000   -2.1092    0.5565 H         1 <0>         0.0639
     16 H2         -0.9000    2.1093    0.5565 H         1 <0>         0.0639
     17 H3          3.3560   -2.0474    0.5172 H         1 <0>         0.0621
     18 H4         -3.3561    2.0474    0.5172 H         1 <0>         0.0621
     19 H5          3.1284    2.0980   -0.5947 H         1 <0>         0.0832
     20 H6         -3.1283   -2.0980   -0.5946 H         1 <0>         0.0832
     21 H7          5.3687   -0.8528   -0.3821 H         1 <0>         0.0278
     22 H8          5.2818    0.8591   -0.7876 H         1 <0>         0.0278
     23 H9          5.3190    0.3600    0.9190 H         1 <0>         0.0278
     24 H10        -5.2819   -0.8612   -0.7855 H         1 <0>         0.0278
     25 H11        -5.3191   -0.3572    0.9197 H         1 <0>         0.0278
     26 H12        -5.3685    0.8519   -0.3850 H         1 <0>         0.0278
@<TRIPOS>BOND
     1    1    3 ar
     2    1   11 ar
     3    2    4 ar
     4    2   12 ar
     5    3    4 1
     6    3    7 ar
     7    4    8 ar
     8    5    9 ar
     9    5   11 ar
    10    5   13 1
    11    6   10 ar
    12    6   12 ar
    13    6   14 1
    14    7    9 ar
    15    7   15 1
    16    8   10 ar
    17    8   16 1
    18    9   17 1
    19   10   18 1
    20   11   19 1
    21   12   20 1
    22   13   21 1
    23   13   22 1
    24   13   23 1
    25   14   24 1
    26   14   25 1
    27   14   26 1
