@<TRIPOS>MOLECULE
DB11064
   41    42     0     0     0
SMALL
USER_CHARGES

@<TRIPOS>ATOM
      1 O1         -0.8832    0.8642    0.6679 O.3       1 <0>        -0.4578
      2 O2         -1.7237   -0.6896    2.1438 O.2       1 <0>        -0.2448
      3 O3         -3.8400   -1.9354    0.9808 O.3       1 <0>        -0.5059
      4 C1          2.8422    0.8277   -0.0298 C.3       1 <0>        -0.0313
      5 C2          2.8540   -0.5514   -0.7309 C.3       1 <0>        -0.0450
      6 C3          1.8959   -1.5735   -0.0964 C.3       1 <0>        -0.0401
      7 C4          1.3918    1.3429    0.0880 C.3       1 <0>        -0.0105
      8 C5          0.4375    0.3310    0.7227 C.3       1 <0>         0.1041
      9 C6          0.4748   -1.0080   -0.0109 C.3       1 <0>        -0.0130
     10 C7          3.5002    0.7370    1.3605 C.3       1 <0>        -0.0597
     11 C8          3.6593    1.8241   -0.8743 C.3       1 <0>        -0.0597
     12 C9          1.9052   -2.8803   -0.8898 C.3       1 <0>        -0.0623
     13 C10        -1.8598    0.0913    1.2148 C.2       1 <0>         0.3430
     14 C11        -3.1542    0.3167    0.5232 C.ar      1 <0>         0.1003
     15 C12        -4.0774   -0.7064    0.4415 C.ar      1 <0>         0.1308
     16 C13        -3.3912    1.5629   -0.0236 C.ar      1 <0>        -0.0442
     17 C14        -5.2872   -0.4746   -0.2133 C.ar      1 <0>        -0.0194
     18 C15        -4.6008    1.7946   -0.6784 C.ar      1 <0>        -0.0608
     19 C16        -5.5487    0.7757   -0.7734 C.ar      1 <0>        -0.0583
     20 H1          3.8736   -0.9588   -0.7329 H         1 <0>         0.0273
     21 H2          2.5760   -0.4188   -1.7859 H         1 <0>         0.0273
     22 H3          2.2415   -1.8049    0.9186 H         1 <0>         0.0299
     23 H4          1.0090    1.6054   -0.9085 H         1 <0>         0.0306
     24 H5          1.3598    2.2798    0.6598 H         1 <0>         0.0306
     25 H6          0.7093    0.1939    1.7764 H         1 <0>         0.0734
     26 H7          0.0559   -0.8822   -1.0190 H         1 <0>         0.0303
     27 H8         -0.1679   -1.7468    0.4810 H         1 <0>         0.0303
     28 H9          3.5140    1.7167    1.8517 H         1 <0>         0.0235
     29 H10         2.9793    0.0454    2.0285 H         1 <0>         0.0235
     30 H11         4.5380    0.3935    1.2805 H         1 <0>         0.0235
     31 H12         3.6730    2.8172   -0.4112 H         1 <0>         0.0235
     32 H13         4.6976    1.4914   -0.9843 H         1 <0>         0.0235
     33 H14         3.2374    1.9330   -1.8799 H         1 <0>         0.0235
     34 H15         1.2489   -3.6224   -0.4233 H         1 <0>         0.0232
     35 H16         1.5632   -2.7251   -1.9187 H         1 <0>         0.0232
     36 H17         2.9146   -3.3033   -0.9285 H         1 <0>         0.0232
     37 H18        -2.6783    2.3791    0.0476 H         1 <0>         0.0627
     38 H19        -6.0349   -1.2591   -0.2950 H         1 <0>         0.0654
     39 H20        -4.8062    2.7691   -1.1117 H         1 <0>         0.0618
     40 H21        -6.4907    0.9566   -1.2827 H         1 <0>         0.0619
     41 H22        -4.6079   -2.5087    0.8154 H         1 <0>         0.2922
@<TRIPOS>BOND
     1    1    8 1
     2    1   13 1
     3    2   13 2
     4    3   15 1
     5    3   41 1
     6    4    5 1
     7    4    7 1
     8    4   10 1
     9    4   11 1
    10    5    6 1
    11    5   20 1
    12    5   21 1
    13    6    9 1
    14    6   12 1
    15    6   22 1
    16    7    8 1
    17    7   23 1
    18    7   24 1
    19    8    9 1
    20    8   25 1
    21    9   26 1
    22    9   27 1
    23   10   28 1
    24   10   29 1
    25   10   30 1
    26   11   31 1
    27   11   32 1
    28   11   33 1
    29   12   34 1
    30   12   35 1
    31   12   36 1
    32   13   14 1
    33   14   15 ar
    34   14   16 ar
    35   15   17 ar
    36   16   18 ar
    37   16   37 1
    38   17   19 ar
    39   17   38 1
    40   18   19 ar
    41   18   39 1
    42   19   40 1
