@<TRIPOS>MOLECULE
DB11096
   45    46     0     0     0
SMALL
USER_CHARGES

@<TRIPOS>ATOM
      1 O1          0.0823   -0.7064    0.5283 O.3       1 <0>        -0.4575
      2 O2          1.3732   -0.4578    2.4181 O.2       1 <0>        -0.2449
      3 N1          3.8927    0.3367    1.6956 N.pl3     1 <0>        -0.3573
      4 C1         -2.1902    0.0479    0.1250 C.3       1 <0>        -0.0015
      5 C2         -0.9309    0.1811    0.9987 C.3       1 <0>         0.1067
      6 C3         -1.9310    0.5506   -1.3034 C.3       1 <0>        -0.0464
      7 C4         -0.1373    2.1238   -0.4427 C.3       1 <0>        -0.0405
      8 C5         -0.3947    1.6159    0.9851 C.3       1 <0>        -0.0128
      9 C6         -1.3964    1.9818   -1.3071 C.3       1 <0>        -0.0500
     10 C7         -2.7058   -1.3921    0.0917 C.3       1 <0>        -0.0405
     11 C8          0.3382    3.5756   -0.4193 C.3       1 <0>        -0.0623
     12 C9         -2.9324   -1.9111    1.5087 C.3       1 <0>        -0.0623
     13 C10        -3.9906   -1.4806   -0.7270 C.3       1 <0>        -0.0623
     14 C11         1.2483   -0.6992    1.2273 C.2       1 <0>         0.3412
     15 C12         2.3912   -1.0299    0.3391 C.ar      1 <0>         0.0796
     16 C13         3.6462   -0.5139    0.5949 C.ar      1 <0>         0.0387
     17 C14         2.1480   -1.8626   -0.7367 C.ar      1 <0>        -0.0460
     18 C15         4.7000   -0.8427   -0.2578 C.ar      1 <0>        -0.0402
     19 C16         3.2017   -2.1915   -1.5893 C.ar      1 <0>        -0.0609
     20 C17         4.4777   -1.6815   -1.3500 C.ar      1 <0>        -0.0600
     21 H1         -2.9663    0.6900    0.5664 H         1 <0>         0.0339
     22 H2         -1.1689   -0.0710    2.0387 H         1 <0>         0.0737
     23 H3         -2.8504    0.5537   -1.8972 H         1 <0>         0.0269
     24 H4         -1.2177   -0.1065   -1.8166 H         1 <0>         0.0269
     25 H5          0.6613    1.5207   -0.8938 H         1 <0>         0.0299
     26 H6          0.5244    1.7207    1.5705 H         1 <0>         0.0303
     27 H7         -1.1360    2.2671    1.4678 H         1 <0>         0.0303
     28 H8         -1.1758    2.2816   -2.3387 H         1 <0>         0.0268
     29 H9         -2.1785    2.6595   -0.9412 H         1 <0>         0.0268
     30 H10        -1.9671   -2.0479   -0.3876 H         1 <0>         0.0299
     31 H11         1.2579    3.6732    0.1671 H         1 <0>         0.0232
     32 H12         0.5486    3.9314   -1.4334 H         1 <0>         0.0232
     33 H13        -0.4165    4.2357    0.0215 H         1 <0>         0.0232
     34 H14        -3.5503   -1.2235    2.0962 H         1 <0>         0.0232
     35 H15        -3.4455   -2.8793    1.4872 H         1 <0>         0.0232
     36 H16        -1.9908   -2.0775    2.0407 H         1 <0>         0.0232
     37 H17        -4.7274   -0.7370   -0.4048 H         1 <0>         0.0232
     38 H18        -4.4505   -2.4694   -0.6168 H         1 <0>         0.0232
     39 H19        -3.8060   -1.3496   -1.7974 H         1 <0>         0.0232
     40 H20         1.1693   -2.2872   -0.9405 H         1 <0>         0.0626
     41 H21         5.6995   -0.4526   -0.0829 H         1 <0>         0.0636
     42 H22         3.0298   -2.8474   -2.4378 H         1 <0>         0.0618
     43 H23         5.2983   -1.9382   -2.0134 H         1 <0>         0.0618
     44 H24         3.1442    0.6091    2.3173 H         1 <0>         0.1423
     45 H25         4.8242    0.7000    1.8494 H         1 <0>         0.1423
@<TRIPOS>BOND
     1    1    5 1
     2    1   14 1
     3    2   14 2
     4    3   16 1
     5    3   44 1
     6    3   45 1
     7    4    5 1
     8    4    6 1
     9    4   10 1
    10    4   21 1
    11    5    8 1
    12    5   22 1
    13    6    9 1
    14    6   23 1
    15    6   24 1
    16    7    8 1
    17    7    9 1
    18    7   11 1
    19    7   25 1
    20    8   26 1
    21    8   27 1
    22    9   28 1
    23    9   29 1
    24   10   12 1
    25   10   13 1
    26   10   30 1
    27   11   31 1
    28   11   32 1
    29   11   33 1
    30   12   34 1
    31   12   35 1
    32   12   36 1
    33   13   37 1
    34   13   38 1
    35   13   39 1
    36   14   15 1
    37   15   16 ar
    38   15   17 ar
    39   16   18 ar
    40   17   19 ar
    41   17   40 1
    42   18   20 ar
    43   18   41 1
    44   19   20 ar
    45   19   42 1
    46   20   43 1
