@<TRIPOS>MOLECULE
DB11062
   40    40     0     0     0
SMALL
USER_CHARGES

@<TRIPOS>ATOM
      1 O1         -1.3657    0.3377    0.1103 O.3       1 <0>        -0.4608
      2 O2         -2.4555    1.8110    1.5036 O.2       1 <0>        -0.2448
      3 O3         -4.8713    2.4176    0.4183 O.3       1 <0>        -0.5059
      4 C1          1.0338    0.0611   -0.1397 C.3       1 <0>        -0.0069
      5 C2          2.3788    0.7378    0.1996 C.3       1 <0>        -0.0471
      6 C3          1.0015   -1.4578    0.1424 C.3       1 <0>        -0.0500
      7 C4          3.5688    0.1585   -0.5724 C.3       1 <0>        -0.0529
      8 C5         -0.1065    0.8120    0.5674 C.3       1 <0>         0.0956
      9 C6          4.9002    0.8251   -0.2160 C.3       1 <0>        -0.0559
     10 C7          1.2158   -1.8505    1.5976 C.3       1 <0>        -0.0649
     11 C8          6.0894    0.2371   -0.9600 C.3       1 <0>        -0.0653
     12 C9         -2.4632    0.9254    0.6627 C.2       1 <0>         0.3427
     13 C10        -3.7098    0.3430    0.1049 C.ar      1 <0>         0.1003
     14 C11        -4.8487    1.1173    0.0108 C.ar      1 <0>         0.1308
     15 C12        -3.6838   -0.9754   -0.3066 C.ar      1 <0>        -0.0442
     16 C13        -6.0094    0.5511   -0.5160 C.ar      1 <0>        -0.0194
     17 C14        -4.8448   -1.5415   -0.8335 C.ar      1 <0>        -0.0608
     18 C15        -6.0076   -0.7784   -0.9382 C.ar      1 <0>        -0.0583
     19 H1          0.8682    0.1702   -1.2209 H         1 <0>         0.0333
     20 H2          2.3083    1.8082   -0.0334 H         1 <0>         0.0269
     21 H3          2.5719    0.6716    1.2770 H         1 <0>         0.0269
     22 H4          1.7470   -1.9681   -0.4774 H         1 <0>         0.0266
     23 H5          0.0329   -1.8596   -0.1809 H         1 <0>         0.0266
     24 H6          3.3876    0.2600   -1.6493 H         1 <0>         0.0265
     25 H7          3.6648   -0.9123   -0.3632 H         1 <0>         0.0265
     26 H8         -0.0365    1.8815    0.3321 H         1 <0>         0.0700
     27 H9         -0.0365    0.6993    1.6552 H         1 <0>         0.0700
     28 H10         4.8393    1.8975   -0.4358 H         1 <0>         0.0263
     29 H11         5.0769    0.7309    0.8621 H         1 <0>         0.0263
     30 H12         0.4382   -1.4395    2.2471 H         1 <0>         0.0230
     31 H13         1.1813   -2.9408    1.6952 H         1 <0>         0.0230
     32 H14         2.1909   -1.5186    1.9651 H         1 <0>         0.0230
     33 H15         7.0114    0.7502   -0.6697 H         1 <0>         0.0230
     34 H16         6.2050   -0.8273   -0.7320 H         1 <0>         0.0230
     35 H17         5.9645    0.3452   -2.0420 H         1 <0>         0.0230
     36 H18        -2.7980   -1.5979   -0.2231 H         1 <0>         0.0627
     37 H19        -6.9227    1.1336   -0.6033 H         1 <0>         0.0654
     38 H20        -4.8446   -2.5777   -1.1590 H         1 <0>         0.0618
     39 H21        -6.9116   -1.2197   -1.3474 H         1 <0>         0.0619
     40 H22        -5.7605    2.7822    0.2686 H         1 <0>         0.2922
@<TRIPOS>BOND
     1    1    8 1
     2    1   12 1
     3    2   12 2
     4    3   14 1
     5    3   40 1
     6    4    5 1
     7    4    6 1
     8    4    8 1
     9    4   19 1
    10    5    7 1
    11    5   20 1
    12    5   21 1
    13    6   10 1
    14    6   22 1
    15    6   23 1
    16    7    9 1
    17    7   24 1
    18    7   25 1
    19    8   26 1
    20    8   27 1
    21    9   11 1
    22    9   28 1
    23    9   29 1
    24   10   30 1
    25   10   31 1
    26   10   32 1
    27   11   33 1
    28   11   34 1
    29   11   35 1
    30   12   13 1
    31   13   14 ar
    32   13   15 ar
    33   14   16 ar
    34   15   17 ar
    35   15   36 1
    36   16   18 ar
    37   16   37 1
    38   17   18 ar
    39   17   38 1
    40   18   39 1
