@<TRIPOS>MOLECULE
DB11751
   46    49     0     0     0
SMALL
USER_CHARGES

@<TRIPOS>ATOM
      1 F1         -5.1882    2.0407    1.2373 F         1 <0>        -0.2051
      2 F2         -8.0160    0.8082   -2.3509 F         1 <0>        -0.2054
      3 O1          5.1204   -1.8349    0.1564 O.3       1 <0>        -0.3550
      4 O2          3.4451    2.2950   -0.9411 O.2       1 <0>        -0.2682
      5 O3          1.0052    2.9563   -0.1763 O.3       1 <0>        -0.5017
      6 O4         -1.5030    1.8866    0.3166 O.2       1 <0>        -0.2831
      7 O5         -2.3197   -2.1161    0.0574 O.2       1 <0>        -0.2700
      8 N1          4.2000    0.2386   -0.2384 N.am      1 <0>        -0.2639
      9 N2          1.6024   -0.6965   -0.0677 N.pl3     1 <0>        -0.3352
     10 N3         -2.9292   -0.2089    1.2523 N.am      1 <0>        -0.3070
     11 C1          3.9516   -1.0360    0.3817 C.3       1 <0>         0.1456
     12 C2          5.5927    0.3548   -0.5947 C.3       1 <0>         0.0494
     13 C3          2.7060   -1.6522   -0.2189 C.3       1 <0>         0.0667
     14 C4          5.9694   -1.1080   -0.7540 C.3       1 <0>         0.0684
     15 C5          3.2198    1.1771   -0.4835 C.2       1 <0>         0.2691
     16 C6          1.8164    0.6889   -0.1920 C.2       1 <0>         0.1505
     17 C7          6.3875    1.0475    0.5070 C.3       1 <0>        -0.0442
     18 C8          0.3093   -1.1525    0.1462 C.2       1 <0>         0.0214
     19 C9          0.8224    1.5955   -0.0770 C.2       1 <0>         0.1936
     20 C10        -0.7672   -0.3676    0.2796 C.2       1 <0>         0.1030
     21 C11        -0.5675    1.1034    0.1870 C.2       1 <0>         0.2357
     22 C12        -2.0681   -0.9969    0.5068 C.2       1 <0>         0.2496
     23 C13        -4.2716   -0.6108    1.6077 C.3       1 <0>         0.0399
     24 C14        -5.2699   -0.2309    0.5526 C.ar      1 <0>         0.0050
     25 C15        -5.6803    1.0962    0.4236 C.ar      1 <0>         0.1308
     26 C16        -5.7871   -1.2067   -0.2995 C.ar      1 <0>        -0.0516
     27 C17        -6.6080    1.4471   -0.5572 C.ar      1 <0>         0.0091
     28 C18        -6.7150   -0.8557   -1.2800 C.ar      1 <0>        -0.0260
     29 C19        -7.1255    0.4712   -1.4089 C.ar      1 <0>         0.1261
     30 H1          3.8381   -0.8824    1.4617 H         1 <0>         0.0828
     31 H2          5.7094    0.9138   -1.5291 H         1 <0>         0.0521
     32 H3          2.8517   -1.8821   -1.2824 H         1 <0>         0.0534
     33 H4          2.4956   -2.6056    0.2815 H         1 <0>         0.0534
     34 H5          5.7378   -1.4635   -1.7647 H         1 <0>         0.0579
     35 H6          7.0197   -1.3253   -0.5399 H         1 <0>         0.0579
     36 H7          7.4501    1.0909    0.2468 H         1 <0>         0.0248
     37 H8          6.0313    2.0726    0.6553 H         1 <0>         0.0248
     38 H9          6.2933    0.5258    1.4658 H         1 <0>         0.0248
     39 H10         0.2443   -2.2342    0.2042 H         1 <0>         0.0818
     40 H11         1.9474    3.1562   -0.2883 H         1 <0>         0.2924
     41 H12        -2.6224    0.6993    1.5872 H         1 <0>         0.1493
     42 H13        -4.5250   -0.1273    2.5579 H         1 <0>         0.0513
     43 H14        -4.2832   -1.6926    1.7851 H         1 <0>         0.0513
     44 H15        -5.4752   -2.2440   -0.2117 H         1 <0>         0.0623
     45 H16        -6.9273    2.4801   -0.6577 H         1 <0>         0.0675
     46 H17        -7.1177   -1.6152   -1.9438 H         1 <0>         0.0646
@<TRIPOS>BOND
     1    1   25 1
     2    2   29 1
     3    3   11 1
     4    3   14 1
     5    4   15 2
     6    5   19 1
     7    5   40 1
     8    6   21 2
     9    7   22 2
    10    8   11 1
    11    8   12 1
    12    8   15 am
    13    9   13 1
    14    9   16 1
    15    9   18 2
    16   10   22 am
    17   10   23 1
    18   10   41 1
    19   11   13 1
    20   11   30 1
    21   12   14 1
    22   12   17 1
    23   12   31 1
    24   13   32 1
    25   13   33 1
    26   14   34 1
    27   14   35 1
    28   15   16 1
    29   16   19 2
    30   17   36 1
    31   17   37 1
    32   17   38 1
    33   18   20 1
    34   18   39 1
    35   19   21 1
    36   20   21 1
    37   20   22 1
    38   23   24 1
    39   23   42 1
    40   23   43 1
    41   24   25 ar
    42   24   26 ar
    43   25   27 ar
    44   26   28 ar
    45   26   44 1
    46   27   29 ar
    47   27   45 1
    48   28   29 ar
    49   28   46 1
