@<TRIPOS>MOLECULE
DB11644
   27    29     0     0     0
SMALL
USER_CHARGES

@<TRIPOS>ATOM
      1 Cl1         5.7198    2.1247   -0.0002 Cl        1 <0>        -0.0835
      2 Cl2         4.6113   -3.1572   -0.0021 Cl        1 <0>        -0.0835
      3 O1          0.0441   -0.7020    0.0020 O.3       1 <0>        -0.4353
      4 O2         -4.8031   -2.0173   -0.0004 O.3       1 <0>        -0.4771
      5 O3         -5.9580   -0.0596   -0.0005 O.2       1 <0>        -0.2451
      6 N1          0.2589    1.5543    0.0007 N.2       1 <0>        -0.2089
      7 C1         -1.2092   -0.1600    0.0012 C.ar      1 <0>         0.1565
      8 C2         -1.0737    1.2205    0.0003 C.ar      1 <0>         0.1099
      9 C3          0.8635    0.3866    0.0016 C.2       1 <0>         0.2285
     10 C4          2.2695    0.0917    0.0008 C.ar      1 <0>         0.0397
     11 C5         -2.4228   -0.8364    0.0008 C.ar      1 <0>        -0.0032
     12 C6         -2.2294    2.0148   -0.0006 C.ar      1 <0>        -0.0318
     13 C7         -3.5657   -0.0296   -0.0001 C.ar      1 <0>         0.0624
     14 C8         -3.4735    1.3678   -0.0009 C.ar      1 <0>        -0.0455
     15 C9          2.7099   -1.2349    0.0002 C.ar      1 <0>        -0.0310
     16 C10         3.2064    1.1294    0.0004 C.ar      1 <0>        -0.0310
     17 C11         4.5715    0.8430   -0.0002 C.ar      1 <0>         0.0431
     18 C12         4.0751   -1.5216   -0.0004 C.ar      1 <0>         0.0431
     19 C13         5.0060   -0.4826   -0.0006 C.ar      1 <0>        -0.0250
     20 C14        -4.8781   -0.6584    0.0000 C.2       1 <0>         0.3369
     21 H1         -2.4422   -1.9192    0.0016 H         1 <0>         0.0663
     22 H2         -2.1695    3.0981   -0.0012 H         1 <0>         0.0640
     23 H3         -4.3710    1.9828   -0.0015 H         1 <0>         0.0626
     24 H4          2.0047   -2.0634    0.0002 H         1 <0>         0.0640
     25 H5          2.8770    2.1668    0.0009 H         1 <0>         0.0640
     26 H6          6.0707   -0.7062   -0.0012 H         1 <0>         0.0647
     27 H7         -5.6920   -2.4320   -0.0009 H         1 <0>         0.2954
@<TRIPOS>BOND
     1    1   17 1
     2    2   18 1
     3    3    7 1
     4    3    9 1
     5    4   20 1
     6    4   27 1
     7    5   20 2
     8    6    8 1
     9    6    9 2
    10    7    8 ar
    11    7   11 ar
    12    8   12 ar
    13    9   10 1
    14   10   15 ar
    15   10   16 ar
    16   11   13 ar
    17   11   21 1
    18   12   14 ar
    19   12   22 1
    20   13   14 ar
    21   13   20 1
    22   14   23 1
    23   15   18 ar
    24   15   24 1
    25   16   17 ar
    26   16   25 1
    27   17   19 ar
    28   18   19 ar
    29   19   26 1
