@<TRIPOS>MOLECULE
DB11587
   33    33     0     0     0
SMALL
USER_CHARGES

@<TRIPOS>ATOM
      1 O1          0.3726   -0.2457   -2.0283 O.3       1 <0>        -0.3856
      2 N1         -1.8750    0.0863   -0.2324 N.3       1 <0>        -0.3002
      3 C1         -0.5053   -0.1428    0.2444 C.3       1 <0>         0.0374
      4 C2          0.5016    0.4337   -0.7764 C.3       1 <0>         0.0954
      5 C3         -0.3264   -1.6466    0.4617 C.3       1 <0>        -0.0468
      6 C4         -2.8396   -0.4435    0.7276 C.3       1 <0>        -0.0039
      7 C5          1.9473    0.2935   -0.3503 C.ar      1 <0>        -0.0177
      8 C6         -2.0999    1.5118   -0.4566 C.3       1 <0>        -0.0124
      9 C7         -4.2516   -0.2547    0.2074 C.3       1 <0>        -0.0524
     10 C8          2.5341    1.3051    0.3899 C.ar      1 <0>        -0.0561
     11 C9          2.6502   -0.8431   -0.7097 C.ar      1 <0>        -0.0561
     12 C10         3.8662    1.1760    0.7829 C.ar      1 <0>        -0.0614
     13 C11         3.9823   -0.9723   -0.3165 C.ar      1 <0>        -0.0614
     14 C12         4.5902    0.0373    0.4298 C.ar      1 <0>        -0.0617
     15 H1         -0.3463    0.3598    1.2093 H         1 <0>         0.0488
     16 H2          0.3576    1.4995   -0.9749 H         1 <0>         0.0659
     17 H3         -0.8730   -2.0141    1.3362 H         1 <0>         0.0246
     18 H4         -0.6272   -2.2328   -0.4143 H         1 <0>         0.0246
     19 H5          0.7118   -1.9028    0.6866 H         1 <0>         0.0246
     20 H6         -2.7414   -1.5258    0.8461 H         1 <0>         0.0424
     21 H7         -2.7393    0.0161    1.7187 H         1 <0>         0.0424
     22 H8         -3.1305    1.7387   -0.7449 H         1 <0>         0.0391
     23 H9         -1.5380    1.8918   -1.3145 H         1 <0>         0.0391
     24 H10        -1.8608    2.1176    0.4252 H         1 <0>         0.0391
     25 H11        -4.6145    0.7701    0.3314 H         1 <0>         0.0242
     26 H12        -4.3462   -0.5451   -0.8449 H         1 <0>         0.0242
     27 H13        -4.9386   -0.8902    0.7787 H         1 <0>         0.0242
     28 H14         1.9772    2.1937    0.6722 H         1 <0>         0.0621
     29 H15         2.2037   -1.6490   -1.2843 H         1 <0>         0.0621
     30 H16        -0.5537   -0.1611   -2.3112 H         1 <0>         0.2103
     31 H17         4.3393    1.9616    1.3647 H         1 <0>         0.0618
     32 H18         4.5460   -1.8595   -0.5899 H         1 <0>         0.0618
     33 H19         5.6272   -0.0635    0.7364 H         1 <0>         0.0618
@<TRIPOS>BOND
     1    1    4 1
     2    1   30 1
     3    2    3 1
     4    2    6 1
     5    2    8 1
     6    3    4 1
     7    3    5 1
     8    3   15 1
     9    4    7 1
    10    4   16 1
    11    5   17 1
    12    5   18 1
    13    5   19 1
    14    6    9 1
    15    6   20 1
    16    6   21 1
    17    7   10 ar
    18    7   11 ar
    19    8   22 1
    20    8   23 1
    21    8   24 1
    22    9   25 1
    23    9   26 1
    24    9   27 1
    25   10   12 ar
    26   10   28 1
    27   11   13 ar
    28   11   29 1
    29   12   14 ar
    30   12   31 1
    31   13   14 ar
    32   13   32 1
    33   14   33 1
