@<TRIPOS>MOLECULE
DB11221
   30    31     0     0     0
SMALL
USER_CHARGES

@<TRIPOS>ATOM
      1 O1         -4.2883   -0.4523    0.0341 O.3       1 <0>        -0.4950
      2 O2         -1.2973    3.2529   -0.1224 O.3       1 <0>        -0.5059
      3 O3          1.1838    2.7378   -0.1963 O.2       1 <0>        -0.2864
      4 O4          2.2182    0.5984    2.2199 O.3       1 <0>        -0.5061
      5 C1         -0.4303    1.0166   -0.1028 C.ar      1 <0>         0.0640
      6 C2          2.0851    0.5993   -0.1753 C.ar      1 <0>         0.0637
      7 C3          0.9569    1.5199   -0.1557 C.2       1 <0>         0.2001
      8 C4         -1.4927    1.9045   -0.0892 C.ar      1 <0>         0.1311
      9 C5         -0.6327   -0.3533   -0.0724 C.ar      1 <0>        -0.0439
     10 C6         -3.0170    0.0315   -0.0122 C.ar      1 <0>         0.1236
     11 C7         -2.7957    1.4084   -0.0435 C.ar      1 <0>         0.0222
     12 C8          2.6787    0.1687    1.0113 C.ar      1 <0>         0.1277
     13 C9         -1.9354   -0.8492   -0.0266 C.ar      1 <0>        -0.0190
     14 C10         2.5724    0.1487   -1.4023 C.ar      1 <0>        -0.0474
     15 C11         3.7593   -0.7126    0.9709 C.ar      1 <0>        -0.0195
     16 C12         3.6531   -0.7323   -1.4426 C.ar      1 <0>        -0.0609
     17 C13         4.2466   -1.1628   -0.2562 C.ar      1 <0>        -0.0583
     18 C14        -4.4427   -1.8703    0.0661 C.3       1 <0>         0.0788
     19 H1          0.1747   -1.0779   -0.0821 H         1 <0>         0.0627
     20 H2         -3.6442    2.0880   -0.0322 H         1 <0>         0.0691
     21 H3         -2.0364   -1.9290   -0.0040 H         1 <0>         0.0654
     22 H4          2.1191    0.4775   -2.3340 H         1 <0>         0.0626
     23 H5          4.2315   -1.0563    1.8872 H         1 <0>         0.0654
     24 H6          4.0326   -1.0829   -2.3979 H         1 <0>         0.0618
     25 H7          5.0881   -1.8488   -0.2878 H         1 <0>         0.0619
     26 H8         -2.1608    3.7000   -0.1065 H         1 <0>         0.2922
     27 H9          2.7513    0.1935    2.9253 H         1 <0>         0.2922
     28 H10        -5.5172   -2.0777    0.1016 H         1 <0>         0.0660
     29 H11        -4.0036   -2.3026    0.9717 H         1 <0>         0.0660
     30 H12        -4.0570   -2.3377   -0.8462 H         1 <0>         0.0660
@<TRIPOS>BOND
     1    1   10 1
     2    1   18 1
     3    2    8 1
     4    2   26 1
     5    3    7 2
     6    4   12 1
     7    4   27 1
     8    5    7 1
     9    5    8 ar
    10    5    9 ar
    11    6    7 1
    12    6   12 ar
    13    6   14 ar
    14    8   11 ar
    15    9   13 ar
    16    9   19 1
    17   10   11 ar
    18   10   13 ar
    19   11   20 1
    20   12   15 ar
    21   13   21 1
    22   14   16 ar
    23   14   22 1
    24   15   17 ar
    25   15   23 1
    26   16   17 ar
    27   16   24 1
    28   17   25 1
    29   18   28 1
    30   18   29 1
    31   18   30 1
