@<TRIPOS>MOLECULE
DB11859
   57    60     0     0     0
SMALL
USER_CHARGES

@<TRIPOS>ATOM
      1 O1         -4.9848    0.3673   -1.9347 O.3       1 <0>        -0.3918
      2 O2          5.5991    0.0982    0.9028 O.2       1 <0>        -0.2974
      3 C1         -0.5643    0.3316   -0.2329 C.3       1 <0>        -0.0323
      4 C2          0.1419   -1.0081    0.1559 C.3       1 <0>        -0.0343
      5 C3          1.5651   -0.9924   -0.4132 C.3       1 <0>        -0.0319
      6 C4          2.4151    0.1812    0.1212 C.3       1 <0>        -0.0195
      7 C5         -2.0558    0.3765    0.2687 C.3       1 <0>        -0.0260
      8 C6         -2.7827   -0.8750   -0.3203 C.3       1 <0>        -0.0330
      9 C7          0.2836    1.5697    0.1607 C.3       1 <0>        -0.0489
     10 C8          1.7433    1.4880   -0.3219 C.3       1 <0>        -0.0464
     11 C9         -0.6510   -2.2233   -0.3464 C.3       1 <0>        -0.0494
     12 C10         3.7508   -0.1367   -0.5866 C.3       1 <0>         0.0229
     13 C11         2.4623   -2.2066   -0.1982 C.3       1 <0>        -0.0488
     14 C12        -2.1123   -2.1896    0.0958 C.3       1 <0>        -0.0494
     15 C13        -2.7796    1.6410   -0.2752 C.3       1 <0>        -0.0448
     16 C14         3.8771   -1.6719   -0.4832 C.3       1 <0>        -0.0427
     17 C15        -4.2899   -0.8932   -0.0134 C.3       1 <0>        -0.0235
     18 C16         2.5920    0.1778    1.6627 C.3       1 <0>        -0.0587
     19 C17        -2.1137    0.4083    1.8178 C.3       1 <0>        -0.0590
     20 C18        -4.2906    1.6458   -0.0099 C.3       1 <0>        -0.0263
     21 C19        -4.9817    0.3781   -0.5072 C.3       1 <0>         0.0555
     22 C20         4.9460    0.5710   -0.0263 C.2       1 <0>         0.1339
     23 C21         5.3104    1.8873   -0.6577 C.3       1 <0>        -0.0058
     24 H1         -0.6083    0.3498   -1.3337 H         1 <0>         0.0309
     25 H2          0.1999   -1.0917    1.2457 H         1 <0>         0.0306
     26 H3          1.4651   -0.8784   -1.5060 H         1 <0>         0.0309
     27 H4         -2.6917   -0.8196   -1.4163 H         1 <0>         0.0307
     28 H5          0.2734    1.7114    1.2456 H         1 <0>         0.0268
     29 H6         -0.1566    2.4750   -0.2720 H         1 <0>         0.0268
     30 H7          1.7558    1.5671   -1.4166 H         1 <0>         0.0271
     31 H8          2.2921    2.3562    0.0593 H         1 <0>         0.0271
     32 H9         -0.1930   -3.1495    0.0199 H         1 <0>         0.0268
     33 H10        -0.6106   -2.2646   -1.4425 H         1 <0>         0.0268
     34 H11         3.6830    0.1144   -1.6542 H         1 <0>         0.0383
     35 H12         2.2070   -3.0321   -0.8703 H         1 <0>         0.0268
     36 H13         2.3921   -2.5813    0.8289 H         1 <0>         0.0268
     37 H14        -2.6368   -3.0362   -0.3640 H         1 <0>         0.0268
     38 H15        -2.1799   -2.3363    1.1797 H         1 <0>         0.0268
     39 H16        -2.6130    1.7202   -1.3576 H         1 <0>         0.0271
     40 H17        -2.3558    2.5487    0.1703 H         1 <0>         0.0271
     41 H18         4.5656   -2.0124    0.2971 H         1 <0>         0.0272
     42 H19         4.2525   -2.0762   -1.4308 H         1 <0>         0.0272
     43 H20        -4.7406   -1.7611   -0.5118 H         1 <0>         0.0293
     44 H21        -4.4631   -1.0201    1.0608 H         1 <0>         0.0293
     45 H22         3.1194   -0.7109    2.0235 H         1 <0>         0.0235
     46 H23         3.1674    1.0523    1.9881 H         1 <0>         0.0235
     47 H24         1.6395    0.2176    2.1976 H         1 <0>         0.0235
     48 H25        -1.5636   -0.4156    2.2786 H         1 <0>         0.0235
     49 H26        -1.6936    1.3400    2.2108 H         1 <0>         0.0235
     50 H27        -3.1369    0.3476    2.1983 H         1 <0>         0.0235
     51 H28        -4.4777    1.7678    1.0629 H         1 <0>         0.0290
     52 H29        -4.7226    2.5232   -0.5065 H         1 <0>         0.0290
     53 H30        -6.0282    0.3719   -0.1830 H         1 <0>         0.0593
     54 H31         5.4679    1.7522   -1.7308 H         1 <0>         0.0306
     55 H32         4.5236    2.6219   -0.4806 H         1 <0>         0.0306
     56 H33         6.2401    2.2579   -0.2159 H         1 <0>         0.0306
     57 H34        -5.4527    1.1658   -2.2331 H         1 <0>         0.2098
@<TRIPOS>BOND
     1    1   21 1
     2    1   57 1
     3    2   22 2
     4    3    4 1
     5    3    7 1
     6    3    9 1
     7    3   24 1
     8    4    5 1
     9    4   11 1
    10    4   25 1
    11    5    6 1
    12    5   13 1
    13    5   26 1
    14    6   10 1
    15    6   12 1
    16    6   18 1
    17    7    8 1
    18    7   15 1
    19    7   19 1
    20    8   14 1
    21    8   17 1
    22    8   27 1
    23    9   10 1
    24    9   28 1
    25    9   29 1
    26   10   30 1
    27   10   31 1
    28   11   14 1
    29   11   32 1
    30   11   33 1
    31   12   16 1
    32   12   22 1
    33   12   34 1
    34   13   16 1
    35   13   35 1
    36   13   36 1
    37   14   37 1
    38   14   38 1
    39   15   20 1
    40   15   39 1
    41   15   40 1
    42   16   41 1
    43   16   42 1
    44   17   21 1
    45   17   43 1
    46   17   44 1
    47   18   45 1
    48   18   46 1
    49   18   47 1
    50   19   48 1
    51   19   49 1
    52   19   50 1
    53   20   21 1
    54   20   51 1
    55   20   52 1
    56   21   53 1
    57   22   23 1
    58   23   54 1
    59   23   55 1
    60   23   56 1
