@<TRIPOS>MOLECULE
DB11678
   30    29     0     0     0
SMALL
USER_CHARGES

@<TRIPOS>ATOM
      1 S1         -3.3793   -1.0934    0.6067 S.o2      1 <0>         0.0793
      2 S2          3.2628   -1.2597   -0.4614 S.o2      1 <0>         0.0793
      3 O1         -2.2736    0.0690    0.3117 O.3       1 <0>        -0.2360
      4 O2          2.1860   -0.0409   -0.3332 O.3       1 <0>        -0.2360
      5 O3         -0.9586    2.4752    0.8735 O.3       1 <0>        -0.3868
      6 O4          0.9106    2.3079   -1.2178 O.3       1 <0>        -0.3868
      7 O5         -3.9978   -0.8550    1.8950 O.2       1 <0>        -0.1475
      8 O6         -2.8303   -2.3846    0.2454 O.2       1 <0>        -0.1475
      9 O7          3.8807   -1.2216   -1.7714 O.2       1 <0>        -0.1475
     10 O8          2.6853   -2.4727    0.0807 O.2       1 <0>        -0.1475
     11 C1         -0.2222    1.2720    0.6485 C.3       1 <0>         0.1087
     12 C2          0.1645    1.1515   -0.8325 C.3       1 <0>         0.1087
     13 C3         -1.0950    0.1070    1.1107 C.3       1 <0>         0.1049
     14 C4          1.0050   -0.0886   -1.1278 C.3       1 <0>         0.1049
     15 C5         -4.5276   -0.6077   -0.6563 C.3       1 <0>         0.0817
     16 C6          4.4282   -0.6269    0.7180 C.3       1 <0>         0.0817
     17 H1          0.6714    1.3356    1.2797 H         1 <0>         0.0644
     18 H2         -0.7315    1.1511   -1.4625 H         1 <0>         0.0644
     19 H3         -0.5672   -0.8492    1.0485 H         1 <0>         0.0610
     20 H4         -1.3969    0.2675    2.1522 H         1 <0>         0.0610
     21 H5          0.4545   -1.0130   -0.9293 H         1 <0>         0.0610
     22 H6          1.3053   -0.0832   -2.1819 H         1 <0>         0.0610
     23 H7         -0.4117    3.2131    0.5539 H         1 <0>         0.2100
     24 H8          1.7266    2.3220   -0.6887 H         1 <0>         0.2100
     25 H9         -4.0332   -0.6719   -1.6275 H         1 <0>         0.0489
     26 H10        -5.3778   -1.2923   -0.6239 H         1 <0>         0.0489
     27 H11        -4.8620    0.4123   -0.4572 H         1 <0>         0.0489
     28 H12         4.7851    0.3463    0.3757 H         1 <0>         0.0489
     29 H13         3.9371   -0.5408    1.6892 H         1 <0>         0.0489
     30 H14         5.2619   -1.3290    0.7822 H         1 <0>         0.0489
@<TRIPOS>BOND
     1    1    3 1
     2    1    7 2
     3    1    8 2
     4    1   15 1
     5    2    4 1
     6    2    9 2
     7    2   10 2
     8    2   16 1
     9    3   13 1
    10    4   14 1
    11    5   11 1
    12    5   23 1
    13    6   12 1
    14    6   24 1
    15   11   12 1
    16   11   13 1
    17   11   17 1
    18   12   14 1
    19   12   18 1
    20   13   19 1
    21   13   20 1
    22   14   21 1
    23   14   22 1
    24   15   25 1
    25   15   26 1
    26   15   27 1
    27   16   28 1
    28   16   29 1
    29   16   30 1
