@<TRIPOS>MOLECULE
DB11156
   28    29     0     0     0
SMALL
USER_CHARGES

@<TRIPOS>ATOM
      1 S1         -3.9120   -1.7197    0.6943 S.3       1 <0>        -0.0973
      2 N1          1.8396    0.8147    0.1302 N.pl3     1 <0>        -0.2235
      3 N2          1.1159   -1.4536   -0.1871 N.2       1 <0>        -0.0833
      4 C1          3.2535    0.4590    0.2174 C.3       1 <0>         0.0840
      5 C2          3.4891   -0.8448   -0.5274 C.3       1 <0>         0.0252
      6 C3          2.5059   -1.8922   -0.0314 C.3       1 <0>         0.1355
      7 C4          0.8741   -0.1754   -0.0856 C.2       1 <0>         0.3073
      8 C5          1.5140    2.2148    0.3687 C.3       1 <0>         0.0696
      9 C6         -0.5686    0.1713   -0.2319 C.2       1 <0>         0.0297
     10 C7         -1.4529   -0.7306    0.1737 C.2       1 <0>        -0.0404
     11 C8         -2.8682   -0.5133    0.1023 C.2       1 <0>         0.0124
     12 C9         -3.5237    0.5739   -0.3965 C.2       1 <0>        -0.0475
     13 C10        -4.9362    0.4197   -0.2928 C.2       1 <0>        -0.0542
     14 C11        -5.2846   -0.7826    0.2821 C.2       1 <0>        -0.0238
     15 H1          3.5347    0.3536    1.2717 H         1 <0>         0.0727
     16 H2          3.8806    1.2433   -0.2215 H         1 <0>         0.0727
     17 H3          4.5189   -1.1862   -0.3780 H         1 <0>         0.0341
     18 H4          3.3472   -0.6873   -1.6042 H         1 <0>         0.0341
     19 H5          2.6446   -2.8139   -0.6066 H         1 <0>         0.0792
     20 H6          2.6918   -2.1369    1.0207 H         1 <0>         0.0792
     21 H7          2.3909    2.7865    0.6914 H         1 <0>         0.0689
     22 H8          0.7588    2.3068    1.1560 H         1 <0>         0.0689
     23 H9          1.1326    2.6759   -0.5476 H         1 <0>         0.0689
     24 H10        -0.8187    1.1429   -0.6372 H         1 <0>         0.0698
     25 H11        -1.1311   -1.6757    0.6049 H         1 <0>         0.0631
     26 H12        -3.0559    1.4522   -0.8223 H         1 <0>         0.0629
     27 H13        -5.6603    1.1531   -0.6232 H         1 <0>         0.0623
     28 H14        -6.2798   -1.1555    0.4799 H         1 <0>         0.0693
@<TRIPOS>BOND
     1    1   11 1
     2    1   14 1
     3    2    4 1
     4    2    7 1
     5    2    8 1
     6    3    6 1
     7    3    7 2
     8    4    5 1
     9    4   15 1
    10    4   16 1
    11    5    6 1
    12    5   17 1
    13    5   18 1
    14    6   19 1
    15    6   20 1
    16    7    9 1
    17    8   21 1
    18    8   22 1
    19    8   23 1
    20    9   10 2
    21    9   24 1
    22   10   11 1
    23   10   25 1
    24   11   12 2
    25   12   13 1
    26   12   26 1
    27   13   14 2
    28   13   27 1
    29   14   28 1
