@<TRIPOS>MOLECULE
DB11978
   50    53     0     0     0
SMALL
USER_CHARGES

@<TRIPOS>ATOM
      1 O1          3.1750   -1.2723    1.6090 O.2       1 <0>        -0.2525
      2 N1         -1.8257   -1.9661   -0.8285 N.3       1 <0>        -0.2957
      3 N2          1.3241   -0.5100    0.4514 N.am      1 <0>        -0.2962
      4 N3         -3.4502    1.2072   -0.5081 N.pl3     1 <0>        -0.3405
      5 N4         -4.1032   -0.4861    0.7750 N.2       1 <0>        -0.2309
      6 N5          3.3731    0.4139   -0.0119 N.am      1 <0>        -0.2695
      7 N6         10.0186    1.8229    0.0498 N.1       1 <0>        -0.1909
      8 C1         -1.7529   -0.6313   -0.1812 C.3       1 <0>         0.0700
      9 C2          0.3544   -1.3701    1.0881 C.3       1 <0>         0.0276
     10 C3         -1.0173   -0.7020    1.1802 C.3       1 <0>        -0.0117
     11 C4          0.2361   -2.7068    0.3626 C.3       1 <0>        -0.0216
     12 C5         -0.4879   -2.5665   -0.9764 C.3       1 <0>         0.0010
     13 C6         -3.1213    0.0044    0.0523 C.cat     1 <0>         0.1255
     14 C7         -2.4591   -1.8992   -2.1528 C.3       1 <0>        -0.0121
     15 C8         -4.7296    1.5134   -0.1212 C.ar      1 <0>         0.0662
     16 C9         -5.1152    0.4412    0.6787 C.ar      1 <0>         0.0892
     17 C10         2.6876   -0.5248    0.7646 C.2       1 <0>         0.3041
     18 C11        -5.5576    2.6030   -0.3939 C.ar      1 <0>        -0.0363
     19 C12        -6.3996    0.4391    1.2487 C.ar      1 <0>        -0.0342
     20 C13        -6.8323    2.5845    0.1816 C.ar      1 <0>        -0.0597
     21 C14        -7.2478    1.5227    0.9885 C.ar      1 <0>        -0.0596
     22 C15         4.7566    0.7077    0.0010 C.ar      1 <0>         0.0348
     23 C16         5.2705    1.6853   -0.8510 C.ar      1 <0>        -0.0392
     24 C17         5.6071    0.0189    0.8659 C.ar      1 <0>        -0.0392
     25 C18         6.6350    1.9741   -0.8381 C.ar      1 <0>        -0.0426
     26 C19         6.9716    0.3078    0.8787 C.ar      1 <0>        -0.0426
     27 C20         7.4856    1.2855    0.0266 C.ar      1 <0>         0.0519
     28 C21         8.8834    1.5820    0.0394 C.1       1 <0>         0.0992
     29 H1         -1.1810    0.0409   -0.8374 H         1 <0>         0.0543
     30 H2          0.7129   -1.5616    2.1071 H         1 <0>         0.0500
     31 H3         -0.9138    0.3081    1.5989 H         1 <0>         0.0302
     32 H4         -1.6310   -1.2700    1.8937 H         1 <0>         0.0302
     33 H5         -0.3198   -3.4113    0.9950 H         1 <0>         0.0295
     34 H6          1.2269   -3.1461    0.1962 H         1 <0>         0.0295
     35 H7          0.1279   -1.9767   -1.6685 H         1 <0>         0.0427
     36 H8         -0.5841   -3.5702   -1.4095 H         1 <0>         0.0427
     37 H9          1.0163    0.0887   -0.3084 H         1 <0>         0.1505
     38 H10        -3.5006   -1.5699   -2.0795 H         1 <0>         0.0391
     39 H11        -2.4905   -2.8930   -2.6143 H         1 <0>         0.0391
     40 H12        -1.9268   -1.2223   -2.8307 H         1 <0>         0.0391
     41 H13        -2.8587    1.7727   -1.1025 H         1 <0>         0.1671
     42 H14        -5.2328    3.4258   -1.0205 H         1 <0>         0.0639
     43 H15        -6.7318   -0.3811    1.8771 H         1 <0>         0.0639
     44 H16         2.8173    0.9570   -0.6679 H         1 <0>         0.1564
     45 H17        -7.5121    3.4126   -0.0033 H         1 <0>         0.0618
     46 H18        -8.2447    1.5367    1.4219 H         1 <0>         0.0618
     47 H19         4.6185    2.2290   -1.5297 H         1 <0>         0.0636
     48 H20         5.2847   -0.7500    1.5535 H         1 <0>         0.0636
     49 H21         7.0207    2.7389   -1.5081 H         1 <0>         0.0631
     50 H22         7.6233   -0.2370    1.5580 H         1 <0>         0.0631
@<TRIPOS>BOND
     1    1   17 2
     2    2    8 1
     3    2   12 1
     4    2   14 1
     5    3    9 1
     6    3   17 am
     7    3   37 1
     8    4   13 1
     9    4   15 2
    10    4   41 1
    11    5   13 1
    12    5   16 2
    13    6   17 am
    14    6   22 1
    15    6   44 1
    16    7   28 3
    17    8   10 1
    18    8   13 1
    19    8   29 1
    20    9   10 1
    21    9   11 1
    22    9   30 1
    23   10   31 1
    24   10   32 1
    25   11   12 1
    26   11   33 1
    27   11   34 1
    28   12   35 1
    29   12   36 1
    30   14   38 1
    31   14   39 1
    32   14   40 1
    33   15   16 ar
    34   15   18 ar
    35   16   19 ar
    36   18   20 ar
    37   18   42 1
    38   19   21 ar
    39   19   43 1
    40   20   21 ar
    41   20   45 1
    42   21   46 1
    43   22   23 ar
    44   22   24 ar
    45   23   25 ar
    46   23   47 1
    47   24   26 ar
    48   24   48 1
    49   25   27 ar
    50   25   49 1
    51   26   27 ar
    52   26   50 1
    53   27   28 1
