@<TRIPOS>MOLECULE
DB11100
   17    17     0     0     0
SMALL
USER_CHARGES

@<TRIPOS>ATOM
      1 O1          0.5440    2.2732   -0.1869 O.2       1 <0>        -0.2715
      2 O2          3.5394   -1.1923   -0.4296 O.2       1 <0>        -0.2524
      3 O3         -2.2677    0.9679    1.2913 O.2       1 <0>        -0.2530
      4 N1          1.3833   -1.0313    0.4640 N.am      1 <0>        -0.2730
      5 N2         -0.8523   -0.3046   -0.0494 N.am      1 <0>        -0.2735
      6 N3          2.3008    0.7775   -0.4558 N.am      1 <0>        -0.2372
      7 N4         -3.1227   -0.2181   -0.4785 N.am      1 <0>        -0.3133
      8 C1          0.3755   -0.0188    0.6222 C.3       1 <0>         0.1703
      9 C2          1.0509    1.1701   -0.0391 C.2       1 <0>         0.2591
     10 C3          2.5297   -0.5513   -0.1727 C.2       1 <0>         0.3077
     11 C4         -2.0915    0.2128    0.3367 C.2       1 <0>         0.2988
     12 H1          0.2202    0.1790    1.6868 H         1 <0>         0.0809
     13 H2          1.2819   -1.9868    0.7909 H         1 <0>         0.1525
     14 H3         -0.8171   -0.8964   -0.8734 H         1 <0>         0.1525
     15 H4          2.9622    1.3827   -0.9285 H         1 <0>         0.1592
     16 H5         -2.9573   -0.8419   -1.2612 H         1 <0>         0.1465
     17 H6         -4.0793    0.0780   -0.3166 H         1 <0>         0.1465
@<TRIPOS>BOND
     1    1    9 2
     2    2   10 2
     3    3   11 2
     4    4    8 1
     5    4   10 am
     6    4   13 1
     7    5    8 1
     8    5   11 am
     9    5   14 1
    10    6    9 am
    11    6   10 am
    12    6   15 1
    13    7   11 am
    14    7   16 1
    15    7   17 1
    16    8    9 1
    17    8   12 1
