@<TRIPOS>MOLECULE
DB11102
   29    29     0     0     0
SMALL
USER_CHARGES

@<TRIPOS>ATOM
      1 O1         -3.8374    0.8409   -0.3656 O.3       1 <0>        -0.4793
      2 O2         -3.0041    2.7983    0.3994 O.2       1 <0>        -0.2489
      3 O3          4.6548   -0.7967    0.0016 O.3       1 <0>        -0.5068
      4 O4         -1.1418   -1.3249    2.1312 O.2       1 <0>        -0.2761
      5 N1         -1.6261   -0.5048    0.0065 N.am      1 <0>        -0.3023
      6 C1         -1.5071    0.9007    0.3035 C.3       1 <0>         0.1242
      7 C2         -0.4375    1.5628   -0.5747 C.3       1 <0>         0.0012
      8 C3          0.9252    0.9312   -0.4204 C.ar      1 <0>        -0.0449
      9 C4          1.7940    1.4186    0.5424 C.ar      1 <0>        -0.0551
     10 C5          1.2813   -0.1240   -1.2447 C.ar      1 <0>        -0.0551
     11 C6         -2.8396    1.6137    0.1264 C.2       1 <0>         0.3256
     12 C7          3.0531    0.8353    0.6847 C.ar      1 <0>        -0.0199
     13 C8          2.5404   -0.7076   -1.1024 C.ar      1 <0>        -0.0199
     14 C9         -1.4321   -1.5011    0.9509 C.2       1 <0>         0.2106
     15 C10         3.4262   -0.2279   -0.1375 C.ar      1 <0>         0.1169
     16 C11        -1.6424   -2.8786    0.3817 C.3       1 <0>         0.0122
     17 H1         -1.2403    1.0091    1.3619 H         1 <0>         0.0618
     18 H2         -0.7375    1.5192   -1.6312 H         1 <0>         0.0337
     19 H3         -0.3693    2.6347   -0.3443 H         1 <0>         0.0337
     20 H4         -1.9104   -0.7670   -0.9332 H         1 <0>         0.1495
     21 H5          1.5111    2.2444    1.1888 H         1 <0>         0.0621
     22 H6          0.6011   -0.5039   -2.0016 H         1 <0>         0.0621
     23 H7          3.7338    1.2179    1.4407 H         1 <0>         0.0654
     24 H8          2.8254   -1.5351   -1.7464 H         1 <0>         0.0654
     25 H9         -1.2614   -3.6279    1.0810 H         1 <0>         0.0322
     26 H10        -2.7106   -3.0463    0.2196 H         1 <0>         0.0322
     27 H11        -1.1086   -2.9829   -0.5672 H         1 <0>         0.0322
     28 H12        -4.6744    1.3426   -0.4659 H         1 <0>         0.2951
     29 H13         5.1342   -0.3406    0.7146 H         1 <0>         0.2921
@<TRIPOS>BOND
     1    1   11 1
     2    1   28 1
     3    2   11 2
     4    3   15 1
     5    3   29 1
     6    4   14 2
     7    5    6 1
     8    5   14 am
     9    5   20 1
    10    6    7 1
    11    6   11 1
    12    6   17 1
    13    7    8 1
    14    7   18 1
    15    7   19 1
    16    8    9 ar
    17    8   10 ar
    18    9   12 ar
    19    9   21 1
    20   10   13 ar
    21   10   22 1
    22   12   15 ar
    23   12   23 1
    24   13   15 ar
    25   13   24 1
    26   14   16 1
    27   16   25 1
    28   16   26 1
    29   16   27 1
