@<TRIPOS>MOLECULE
DB11989
   31    32     0     0     0
SMALL
USER_CHARGES

@<TRIPOS>ATOM
      1 O1         -0.9253   -1.0302    1.5182 O.2       1 <0>        -0.2738
      2 O2         -2.2920    2.8205   -2.0892 O.3       1 <0>        -0.5735
      3 O3         -0.8219    1.3267   -1.4365 O.2       1 <0>         0.0446
      4 N1         -2.9904   -0.0616   -0.1800 N.pl3     1 <0>        -0.2632
      5 N2          0.2468   -1.6924   -0.3752 N.am      1 <0>        -0.3097
      6 N3         -3.9134    1.9312    0.0328 N.2       1 <0>        -0.1715
      7 N4         -1.9859    1.8181   -1.3813 N.pl3     1 <0>         0.1195
      8 C1         -2.0705   -1.1100   -0.6103 C.3       1 <0>         0.1065
      9 C2          1.5174   -1.9205    0.2648 C.3       1 <0>         0.0369
     10 C3         -0.8806   -1.2614    0.3130 C.2       1 <0>         0.2333
     11 C4          2.3730   -0.6988    0.2782 C.ar      1 <0>        -0.0303
     12 C5         -2.9415    1.2493   -0.5313 C.cat     1 <0>         0.4507
     13 C6         -4.0455   -0.2446    0.6544 C.2       1 <0>         0.0309
     14 C7          3.2501   -0.4502   -0.7774 C.ar      1 <0>        -0.0571
     15 C8          2.2961    0.1950    1.3463 C.ar      1 <0>        -0.0571
     16 C9         -4.6051    1.0059    0.7738 C.2       1 <0>         0.0522
     17 C10         4.0504    0.6921   -0.7650 C.ar      1 <0>        -0.0615
     18 C11         3.0963    1.3375    1.3587 C.ar      1 <0>        -0.0615
     19 C12         3.9736    1.5861    0.3030 C.ar      1 <0>        -0.0617
     20 H1         -2.6278   -2.0547   -0.5937 H         1 <0>         0.0590
     21 H2         -1.7878   -0.9282   -1.6509 H         1 <0>         0.0590
     22 H3          2.0148   -2.7341   -0.2758 H         1 <0>         0.0512
     23 H4          1.3497   -2.2817    1.2867 H         1 <0>         0.0512
     24 H5          0.1904   -1.8481   -1.3775 H         1 <0>         0.1491
     25 H6         -4.3049   -1.2033    1.0817 H         1 <0>         0.0827
     26 H7          3.3181   -1.1378   -1.6164 H         1 <0>         0.0621
     27 H8          1.6200    0.0134    2.1772 H         1 <0>         0.0621
     28 H9         -5.4706    1.2869    1.3561 H         1 <0>         0.0847
     29 H10         4.7330    0.8862   -1.5872 H         1 <0>         0.0618
     30 H11         3.0369    2.0332    2.1905 H         1 <0>         0.0618
     31 H12         4.5966    2.4756    0.3126 H         1 <0>         0.0618
@<TRIPOS>BOND
     1    1   10 2
     2    2    7 1
     3    3    7 2
     4    4    8 1
     5    4   12 1
     6    4   13 2
     7    5    9 1
     8    5   10 am
     9    5   24 1
    10    6   12 1
    11    6   16 2
    12    7   12 1
    13    8   10 1
    14    8   20 1
    15    8   21 1
    16    9   11 1
    17    9   22 1
    18    9   23 1
    19   11   14 ar
    20   11   15 ar
    21   13   16 1
    22   13   25 1
    23   14   17 ar
    24   14   26 1
    25   15   18 ar
    26   15   27 1
    27   16   28 1
    28   17   19 ar
    29   17   29 1
    30   18   19 ar
    31   18   30 1
    32   19   31 1
