@<TRIPOS>MOLECULE
DB11201
   44    45     0     0     0
SMALL
USER_CHARGES

@<TRIPOS>ATOM
      1 O1          0.7999   -0.1371   -0.1638 O.3       1 <0>        -0.4575
      2 O2          1.5009   -1.1167    1.7979 O.2       1 <0>        -0.2448
      3 O3          3.9528   -2.2606    1.3707 O.3       1 <0>        -0.5059
      4 C1         -1.4105    0.8185   -0.3823 C.3       1 <0>        -0.0015
      5 C2         -0.5619   -0.3140    0.2188 C.3       1 <0>         0.1067
      6 C3         -2.9019    0.5887   -0.1053 C.3       1 <0>        -0.0464
      7 C4         -2.5237   -1.9114    0.0214 C.3       1 <0>        -0.0405
      8 C5         -1.0349   -1.6879   -0.2613 C.3       1 <0>        -0.0128
      9 C6         -3.3647   -0.7839   -0.5887 C.3       1 <0>        -0.0500
     10 C7         -0.9760    2.1859    0.1520 C.3       1 <0>        -0.0405
     11 C8         -2.9762   -3.2704   -0.5096 C.3       1 <0>        -0.0623
     12 C9         -1.7473    3.3014   -0.5470 C.3       1 <0>        -0.0623
     13 C10        -1.1758    2.2562    1.6630 C.3       1 <0>        -0.0623
     14 C11         1.7293   -0.5853    0.7223 C.2       1 <0>         0.3430
     15 C12         3.1011   -0.3422    0.2090 C.ar      1 <0>         0.1003
     16 C13         4.1550   -1.1886    0.5538 C.ar      1 <0>         0.1308
     17 C14         3.3292    0.7506   -0.6272 C.ar      1 <0>        -0.0442
     18 C15         5.4369   -0.9421    0.0619 C.ar      1 <0>        -0.0194
     19 C16         4.6111    0.9970   -1.1190 C.ar      1 <0>        -0.0608
     20 C17         5.6649    0.1507   -0.7744 C.ar      1 <0>        -0.0583
     21 H1         -1.2507    0.8181   -1.4702 H         1 <0>         0.0339
     22 H2         -0.6646   -0.3101    1.3094 H         1 <0>         0.0737
     23 H3         -3.1314    0.6433    0.9632 H         1 <0>         0.0269
     24 H4         -3.5194    1.3392   -0.6090 H         1 <0>         0.0269
     25 H5         -2.6747   -1.9078    1.1092 H         1 <0>         0.0299
     26 H6         -0.4396   -2.4740    0.2203 H         1 <0>         0.0303
     27 H7         -0.8323   -1.7865   -1.3366 H         1 <0>         0.0303
     28 H8         -3.3022   -0.8210   -1.6840 H         1 <0>         0.0268
     29 H9         -4.4208   -0.9227   -0.3276 H         1 <0>         0.0268
     30 H10         0.0890    2.3367   -0.0642 H         1 <0>         0.0299
     31 H11        -4.0329   -3.4441   -0.2810 H         1 <0>         0.0232
     32 H12        -2.3969   -4.0787   -0.0510 H         1 <0>         0.0232
     33 H13        -2.8492   -3.3366   -1.5955 H         1 <0>         0.0232
     34 H14        -2.7942    3.3545   -0.2326 H         1 <0>         0.0232
     35 H15        -1.7139    3.1885   -1.6357 H         1 <0>         0.0232
     36 H16        -1.2983    4.2719   -0.3060 H         1 <0>         0.0232
     37 H17        -2.2215    2.1879    1.9730 H         1 <0>         0.0232
     38 H18        -0.5902    1.5166    2.2129 H         1 <0>         0.0232
     39 H19        -0.8245    3.2325    2.0213 H         1 <0>         0.0232
     40 H20         2.5322    1.4360   -0.9031 H         1 <0>         0.0627
     41 H21         6.2625   -1.5971    0.3268 H         1 <0>         0.0654
     42 H22         4.7897    1.8495   -1.7677 H         1 <0>         0.0618
     43 H23         6.6631    0.3433   -1.1566 H         1 <0>         0.0619
     44 H24         3.0123   -2.3484    1.5924 H         1 <0>         0.2922
@<TRIPOS>BOND
     1    1    5 1
     2    1   14 1
     3    2   14 2
     4    3   16 1
     5    3   44 1
     6    4    5 1
     7    4    6 1
     8    4   10 1
     9    4   21 1
    10    5    8 1
    11    5   22 1
    12    6    9 1
    13    6   23 1
    14    6   24 1
    15    7    8 1
    16    7    9 1
    17    7   11 1
    18    7   25 1
    19    8   26 1
    20    8   27 1
    21    9   28 1
    22    9   29 1
    23   10   12 1
    24   10   13 1
    25   10   30 1
    26   11   31 1
    27   11   32 1
    28   11   33 1
    29   12   34 1
    30   12   35 1
    31   12   36 1
    32   13   37 1
    33   13   38 1
    34   13   39 1
    35   14   15 1
    36   15   16 ar
    37   15   17 ar
    38   16   18 ar
    39   17   19 ar
    40   17   40 1
    41   18   20 ar
    42   18   41 1
    43   19   20 ar
    44   19   42 1
    45   20   43 1
