@<TRIPOS>MOLECULE
DB11585
   72    74     0     0     0
SMALL
NO_CHARGES

@<TRIPOS>ATOM
      1 Si1        -2.8661    0.0385   -0.7866 Si        1 <0>         0.0000
      2 Si2        -3.3969    0.0151    2.3337 Si        1 <0>         0.0000
      3 Si3        -1.4213    2.6526   -1.8343 Si        1 <0>         0.0000
      4 O1         -2.6415    0.2547    0.8587 O.3       1 <0>         0.0000
      5 O2         -1.8084    1.0383   -1.6153 O.3       1 <0>         0.0000
      6 O3          1.0859   -0.0950    0.4245 O.3       1 <0>         0.0000
      7 N1          3.8800   -0.1115    0.4101 N.pl3     1 <0>         0.0000
      8 N2          5.2151   -0.1373    0.4003 N.2       1 <0>         0.0000
      9 N3          3.2488    1.0493    0.6036 N.2       1 <0>         0.0000
     10 C1         -2.5624   -1.7636   -1.2370 C.3       1 <0>         0.0000
     11 C2         -1.0905   -2.2255   -1.3541 C.3       1 <0>         0.0000
     12 C3         -0.4576   -2.4553    0.0394 C.3       1 <0>         0.0000
     13 C4         -4.6378    0.4477   -1.2716 C.3       1 <0>         0.0000
     14 C5         -1.0348   -3.5113   -2.1932 C.3       1 <0>         0.0000
     15 C6          1.0526   -2.4487    0.0333 C.ar      1 <0>         0.0000
     16 C7         -2.2878    0.6147    3.7302 C.3       1 <0>         0.0000
     17 C8         -5.0228    0.9562    2.4288 C.3       1 <0>         0.0000
     18 C9         -3.7541   -1.8118    2.6050 C.3       1 <0>         0.0000
     19 C10         0.0143    2.8126   -3.0398 C.3       1 <0>         0.0000
     20 C11        -0.9137    3.4383   -0.2022 C.3       1 <0>         0.0000
     21 C12        -2.8810    3.6165   -2.5264 C.3       1 <0>         0.0000
     22 C13         1.7630   -1.2640    0.2272 C.ar      1 <0>         0.0000
     23 C14         1.7371   -3.6471   -0.1692 C.ar      1 <0>         0.0000
     24 C15         3.1578   -1.2777    0.2188 C.ar      1 <0>         0.0000
     25 C16         3.1319   -3.6610   -0.1777 C.ar      1 <0>         0.0000
     26 C17         3.8422   -2.4762    0.0164 C.ar      1 <0>         0.0000
     27 C18         3.8635   -4.9425   -0.3948 C.3       1 <0>         0.0000
     28 C19         5.5253    1.1524    0.6112 C.2       1 <0>         0.0000
     29 C20         4.2717    1.9089    0.7409 C.2       1 <0>         0.0000
     30 C21         6.7867    1.7688    0.7076 C.2       1 <0>         0.0000
     31 C22         4.2540    3.2975    0.9698 C.2       1 <0>         0.0000
     32 C23         6.7392    3.1565    0.9363 C.2       1 <0>         0.0000
     33 C24         5.5278    3.8875    1.0617 C.2       1 <0>         0.0000
     34 H1         -3.1020   -2.4099   -0.5345 H         1 <0>         0.0000
     35 H2         -3.0482   -1.9028   -2.2112 H         1 <0>         0.0000
     36 H3         -0.5184   -1.4598   -1.8951 H         1 <0>         0.0000
     37 H4         -0.8066   -3.4166    0.4431 H         1 <0>         0.0000
     38 H5         -0.8137   -1.7290    0.7760 H         1 <0>         0.0000
     39 H6         -4.9047    1.4582   -0.9495 H         1 <0>         0.0000
     40 H7         -4.7605    0.3888   -2.3570 H         1 <0>         0.0000
     41 H8         -5.3365   -0.2561   -0.8099 H         1 <0>         0.0000
     42 H9         -1.5507   -4.3370   -1.6920 H         1 <0>         0.0000
     43 H10        -1.5110   -3.3591   -3.1681 H         1 <0>         0.0000
     44 H11        -0.0034   -3.8174   -2.3891 H         1 <0>         0.0000
     45 H12        -1.3379    0.0722    3.7242 H         1 <0>         0.0000
     46 H13        -2.0751    1.6820    3.6189 H         1 <0>         0.0000
     47 H14        -2.7690    0.4578    4.7000 H         1 <0>         0.0000
     48 H15        -5.7327    0.5816    1.6859 H         1 <0>         0.0000
     49 H16        -5.4737    0.8436    3.4191 H         1 <0>         0.0000
     50 H17        -4.8602    2.0221    2.2437 H         1 <0>         0.0000
     51 H18        -4.4345   -2.1901    1.8367 H         1 <0>         0.0000
     52 H19        -2.8291   -2.3944    2.5629 H         1 <0>         0.0000
     53 H20        -4.2175   -1.9719    3.5830 H         1 <0>         0.0000
     54 H21        -0.2508    2.3846   -4.0111 H         1 <0>         0.0000
     55 H22         0.2796    3.8637   -3.1866 H         1 <0>         0.0000
     56 H23         0.8939    2.2847   -2.6594 H         1 <0>         0.0000
     57 H24        -1.7372    3.4010    0.5169 H         1 <0>         0.0000
     58 H25        -0.0575    2.9098    0.2276 H         1 <0>         0.0000
     59 H26        -0.6332    4.4853   -0.3497 H         1 <0>         0.0000
     60 H27        -3.7166    3.6130   -1.8209 H         1 <0>         0.0000
     61 H28        -2.5988    4.6561   -2.7170 H         1 <0>         0.0000
     62 H29        -3.2217    3.1741   -3.4671 H         1 <0>         0.0000
     63 H30         1.1861   -4.5729   -0.3160 H         1 <0>         0.0000
     64 H31         4.9285   -2.5241    0.0013 H         1 <0>         0.0000
     65 H32         4.1294   -5.0485   -1.4512 H         1 <0>         0.0000
     66 H33         4.7791   -4.9777    0.2054 H         1 <0>         0.0000
     67 H34         3.2549   -5.8043   -0.1006 H         1 <0>         0.0000
     68 H35         0.1963   -0.1483    0.0428 H         1 <0>         0.0000
     69 H36         7.7212    1.2304    0.6151 H         1 <0>         0.0000
     70 H37         3.3421    3.8728    1.0679 H         1 <0>         0.0000
     71 H38         7.6793    3.7000    1.0221 H         1 <0>         0.0000
     72 H39         5.5904    4.9605    1.2381 H         1 <0>         0.0000
@<TRIPOS>BOND
     1    1    4 1
     2    1    5 1
     3    1   10 1
     4    1   13 1
     5    2    4 1
     6    2   16 1
     7    2   17 1
     8    2   18 1
     9    3    5 1
    10    3   19 1
    11    3   20 1
    12    3   21 1
    13    6   22 1
    14    6   68 1
    15    7    8 1
    16    7    9 2
    17    7   24 1
    18    8   28 2
    19    9   29 1
    20   10   11 1
    21   10   34 1
    22   10   35 1
    23   11   12 1
    24   11   14 1
    25   11   36 1
    26   12   15 1
    27   12   37 1
    28   12   38 1
    29   13   39 1
    30   13   40 1
    31   13   41 1
    32   14   42 1
    33   14   43 1
    34   14   44 1
    35   15   22 ar
    36   15   23 ar
    37   16   45 1
    38   16   46 1
    39   16   47 1
    40   17   48 1
    41   17   49 1
    42   17   50 1
    43   18   51 1
    44   18   52 1
    45   18   53 1
    46   19   54 1
    47   19   55 1
    48   19   56 1
    49   20   57 1
    50   20   58 1
    51   20   59 1
    52   21   60 1
    53   21   61 1
    54   21   62 1
    55   22   24 ar
    56   23   25 ar
    57   23   63 1
    58   24   26 ar
    59   25   26 ar
    60   25   27 1
    61   26   64 1
    62   27   65 1
    63   27   66 1
    64   27   67 1
    65   28   29 1
    66   28   30 2
    67   29   31 2
    68   30   32 1
    69   30   69 1
    70   31   33 1
    71   31   70 1
    72   32   33 2
    73   32   71 1
    74   33   72 1
