@<TRIPOS>MOLECULE
DB11629
   48    51     0     0     0
SMALL
USER_CHARGES

@<TRIPOS>ATOM
      1 Cl1         3.9837   -3.7711    2.3571 Cl        1 <0>        -0.0835
      2 S1         -3.4208   -1.5753   -1.2308 S.o2      1 <0>        -0.0038
      3 F1         -5.4071    2.6974    0.5873 F         1 <0>        -0.2054
      4 O1          4.2864    2.2694   -2.1173 O.3       1 <0>        -0.4806
      5 O2         -4.8422   -1.7536   -1.4744 O.2       1 <0>        -0.1696
      6 O3         -2.4683   -1.7364   -2.3169 O.2       1 <0>        -0.1696
      7 O4          4.5175    0.8927   -0.3198 O.2       1 <0>        -0.2510
      8 N1         -0.6789    0.1107   -0.4047 N.pl3     1 <0>        -0.3374
      9 C1          1.6646    1.1372    0.1191 C.3       1 <0>         0.0101
     10 C2          0.1917    1.0494    0.0294 C.cat     1 <0>         0.0270
     11 C3         -0.4893    2.1384    0.4912 C.2       1 <0>        -0.0185
     12 C4          1.7982    2.4063    1.0441 C.3       1 <0>        -0.0403
     13 C5          0.4333    3.1824    0.9781 C.3       1 <0>        -0.0248
     14 C6         -1.8637    1.8903    0.3397 C.ar      1 <0>         0.0079
     15 C7         -1.9642    0.6050   -0.2280 C.ar      1 <0>         0.0751
     16 C8          2.3097    1.3581   -1.2413 C.3       1 <0>         0.0529
     17 C9         -0.3035   -1.1755   -0.9457 C.3       1 <0>         0.0486
     18 C10        -3.1989    0.0162   -0.5247 C.ar      1 <0>         0.1146
     19 C11        -3.0424    2.6066    0.6184 C.ar      1 <0>        -0.0169
     20 C12        -4.3544    0.7492   -0.2381 C.ar      1 <0>         0.0004
     21 C13         3.8095    1.4536   -1.1423 C.2       1 <0>         0.3053
     22 C14         0.7706   -1.8275   -0.1176 C.ar      1 <0>        -0.0277
     23 C15        -4.2796    2.0226    0.3237 C.ar      1 <0>         0.1259
     24 C16        -2.9366   -2.6933    0.0619 C.3       1 <0>         0.0597
     25 C17         0.6614   -1.8287    1.2663 C.ar      1 <0>        -0.0555
     26 C18         1.8571   -2.4178   -0.7487 C.ar      1 <0>        -0.0555
     27 C19         1.6579   -2.4319    2.0338 C.ar      1 <0>        -0.0431
     28 C20         2.8534   -3.0211    0.0188 C.ar      1 <0>        -0.0431
     29 C21         2.7538   -3.0282    1.4100 C.ar      1 <0>         0.0410
     30 H1          2.1370    0.3058    0.6430 H         1 <0>         0.0369
     31 H2          2.6436    3.0545    0.7924 H         1 <0>         0.0275
     32 H3          1.9479    2.0676    2.0788 H         1 <0>         0.0275
     33 H4          0.4991    4.0059    0.2598 H         1 <0>         0.0314
     34 H5          0.1551    3.5746    1.9600 H         1 <0>         0.0314
     35 H6          2.0802    0.5359   -1.9279 H         1 <0>         0.0384
     36 H7          1.9227    2.2802   -1.6943 H         1 <0>         0.0384
     37 H8          0.0117   -1.0158   -1.9820 H         1 <0>         0.0541
     38 H9         -1.0416   -1.9315   -0.8795 H         1 <0>         0.0541
     39 H10        -3.0008    3.5995    1.0564 H         1 <0>         0.0653
     40 H11        -5.3467    0.3543   -0.4379 H         1 <0>         0.0666
     41 H12        -2.2378   -2.2362    0.7594 H         1 <0>         0.0468
     42 H13        -3.8373   -2.9567    0.6240 H         1 <0>         0.0468
     43 H14        -2.5196   -3.5987   -0.3840 H         1 <0>         0.0468
     44 H15        -0.1881   -1.3855    1.7776 H         1 <0>         0.0621
     45 H16         1.9450   -2.4180   -1.8315 H         1 <0>         0.0621
     46 H17         5.2630    2.3524   -2.0791 H         1 <0>         0.2951
     47 H18         1.5658   -2.4322    3.1169 H         1 <0>         0.0632
     48 H19         3.7021   -3.4810   -0.4809 H         1 <0>         0.0632
@<TRIPOS>BOND
     1    1   29 1
     2    2    5 2
     3    2    6 2
     4    2   18 1
     5    2   24 1
     6    3   23 1
     7    4   21 1
     8    4   46 1
     9    7   21 2
    10    8   10 1
    11    8   15 2
    12    8   17 1
    13    9   10 1
    14    9   12 1
    15    9   16 1
    16    9   30 1
    17   10   11 1
    18   11   13 1
    19   11   14 2
    20   12   13 1
    21   12   31 1
    22   12   32 1
    23   13   33 1
    24   13   34 1
    25   14   15 ar
    26   14   19 ar
    27   15   18 ar
    28   16   21 1
    29   16   35 1
    30   16   36 1
    31   17   22 1
    32   17   37 1
    33   17   38 1
    34   18   20 ar
    35   19   23 ar
    36   19   39 1
    37   20   23 ar
    38   20   40 1
    39   22   25 ar
    40   22   26 ar
    41   24   41 1
    42   24   42 1
    43   24   43 1
    44   25   27 ar
    45   25   44 1
    46   26   28 ar
    47   26   45 1
    48   27   29 ar
    49   27   47 1
    50   28   29 ar
    51   28   48 1
