@<TRIPOS>MOLECULE
DB11738
   29    31     0     0     0
SMALL
USER_CHARGES

@<TRIPOS>ATOM
      1 O1          2.5748   -0.1193   -1.1972 O.3       1 <0>        -0.4639
      2 N1          0.3377   -0.1392   -0.7418 N.pl3     1 <0>        -0.2961
      3 N2          1.9500    0.4534    0.9223 N.2       1 <0>        -0.2335
      4 C1         -1.6180   -1.2658    0.2177 C.3       1 <0>        -0.0222
      5 C2         -1.7329    1.1329   -0.5315 C.3       1 <0>        -0.0222
      6 C3         -0.8542    0.0487    0.0842 C.3       1 <0>         0.0303
      7 C4         -0.9050   -2.4217    0.8063 C.3       1 <0>        -0.0482
      8 C5         -1.2189   -2.3884   -0.6607 C.3       1 <0>        -0.0482
      9 C6         -2.9762    1.5029    0.1823 C.3       1 <0>        -0.0482
     10 C7         -1.8043    2.4401    0.1601 C.3       1 <0>        -0.0482
     11 C8          1.5957    0.0813   -0.2686 C.2       1 <0>         0.2781
     12 C9          3.7587    0.3738   -0.5909 C.3       1 <0>         0.1120
     13 C10         3.4151    0.4573    0.8755 C.3       1 <0>         0.0788
     14 H1         -2.6597   -1.1574    0.4871 H         1 <0>         0.0319
     15 H2         -1.7779    1.1017   -1.6128 H         1 <0>         0.0319
     16 H3         -0.5765    0.3501    1.1022 H         1 <0>         0.0504
     17 H4         -1.4721   -3.1074    1.4247 H         1 <0>         0.0269
     18 H5          0.1292   -2.3123    1.1076 H         1 <0>         0.0269
     19 H6         -0.3769   -2.3632   -1.3375 H         1 <0>         0.0269
     20 H7         -2.0079   -3.0444   -1.0160 H         1 <0>         0.0269
     21 H8         -3.2156    1.0438    1.1334 H         1 <0>         0.0269
     22 H9         -3.8426    1.7675   -0.4117 H         1 <0>         0.0269
     23 H10        -1.8842    3.3314   -0.4503 H         1 <0>         0.0269
     24 H11        -1.2584    2.5853    1.0840 H         1 <0>         0.0269
     25 H12         0.2063   -0.3504   -1.7269 H         1 <0>         0.1507
     26 H13         3.9906    1.3557   -1.0170 H         1 <0>         0.0716
     27 H14         4.5961   -0.3033   -0.7823 H         1 <0>         0.0716
     28 H15         3.7970   -0.4119    1.4222 H         1 <0>         0.0543
     29 H16         3.8302    1.3589    1.3356 H         1 <0>         0.0543
@<TRIPOS>BOND
     1    1   11 1
     2    1   12 1
     3    2    6 1
     4    2   11 1
     5    2   25 1
     6    3   11 2
     7    3   13 1
     8    4    6 1
     9    4    7 1
    10    4    8 1
    11    4   14 1
    12    5    6 1
    13    5    9 1
    14    5   10 1
    15    5   15 1
    16    6   16 1
    17    7    8 1
    18    7   17 1
    19    7   18 1
    20    8   19 1
    21    8   20 1
    22    9   10 1
    23    9   21 1
    24    9   22 1
    25   10   23 1
    26   10   24 1
    27   12   13 1
    28   12   26 1
    29   12   27 1
    30   13   28 1
    31   13   29 1
