@<TRIPOS>MOLECULE
DB11656
   41    43     0     0     0
SMALL
USER_CHARGES

@<TRIPOS>ATOM
      1 Cl1        -6.6913   -2.3282    0.0878 Cl        1 <0>        -0.0835
      2 O1         -1.3777    3.9271   -0.3201 O.3       1 <0>        -0.4793
      3 O2          0.4298   -2.9618   -2.3979 O.2       1 <0>        -0.2679
      4 O3          0.8023    4.4203    0.0312 O.2       1 <0>        -0.2489
      5 O4         -0.8866    0.3975    1.9939 O.2       1 <0>        -0.2702
      6 N1         -1.0464    1.3171   -0.1163 N.am      1 <0>        -0.2981
      7 N2          2.1756   -2.5616   -0.9562 N.am      1 <0>        -0.3221
      8 C1          1.1742    1.6342   -1.1152 C.3       1 <0>         0.0020
      9 C2          0.1712    2.0851   -0.0498 C.3       1 <0>         0.1245
     10 C3          1.5160    0.1731   -1.0660 C.2       1 <0>        -0.0309
     11 C4          2.6505   -0.2880   -0.2383 C.ar      1 <0>         0.0018
     12 C5          2.9499   -1.6589   -0.2076 C.ar      1 <0>         0.0494
     13 C6          0.8028   -0.7246   -1.7655 C.2       1 <0>         0.0066
     14 C7          3.4474    0.5801    0.5224 C.ar      1 <0>        -0.0524
     15 C8          1.1113   -2.1779   -1.7408 C.2       1 <0>         0.2494
     16 C9         -0.0853    3.5844   -0.1020 C.2       1 <0>         0.3256
     17 C10         4.0116   -2.1523    0.5578 C.ar      1 <0>        -0.0377
     18 C11        -1.5094    0.5010    0.9377 C.2       1 <0>         0.2447
     19 C12         4.5095    0.0896    1.2881 C.ar      1 <0>        -0.0611
     20 C13         4.7909   -1.2740    1.3057 C.ar      1 <0>        -0.0598
     21 C14        -2.7850   -0.1967    0.7281 C.ar      1 <0>         0.0368
     22 C15        -3.5685   -0.5300    1.8237 C.ar      1 <0>        -0.0483
     23 C16        -3.1881   -0.5106   -0.5620 C.ar      1 <0>        -0.0483
     24 C17        -4.7805   -1.1912    1.6250 C.ar      1 <0>        -0.0427
     25 C18        -4.4002   -1.1716   -0.7608 C.ar      1 <0>        -0.0427
     26 C19        -5.1966   -1.5118    0.3327 C.ar      1 <0>         0.0410
     27 H1          2.0729    2.2616   -1.1031 H         1 <0>         0.0337
     28 H2          0.7343    1.8529   -2.1008 H         1 <0>         0.0337
     29 H3          0.6159    1.9192    0.9396 H         1 <0>         0.0618
     30 H4         -0.0348   -0.4222   -2.3862 H         1 <0>         0.0674
     31 H5         -1.6218    1.4518   -0.9409 H         1 <0>         0.1498
     32 H6          3.2647    1.6500    0.5544 H         1 <0>         0.0624
     33 H7          2.4170   -3.5477   -0.9135 H         1 <0>         0.1689
     34 H8          4.2378   -3.2151    0.5772 H         1 <0>         0.0638
     35 H9          5.1153    0.7752    1.8738 H         1 <0>         0.0618
     36 H10         5.6162   -1.6515    1.9023 H         1 <0>         0.0618
     37 H11        -3.2619   -0.2839    2.8365 H         1 <0>         0.0625
     38 H12        -2.5842   -0.2902   -1.4366 H         1 <0>         0.0625
     39 H13        -1.4988    4.9001   -0.3519 H         1 <0>         0.2951
     40 H14        -5.3912   -1.4493    2.4864 H         1 <0>         0.0632
     41 H15        -4.7087   -1.4214   -1.7728 H         1 <0>         0.0632
@<TRIPOS>BOND
     1    1   26 1
     2    2   16 1
     3    2   39 1
     4    3   15 2
     5    4   16 2
     6    5   18 2
     7    6    9 1
     8    6   18 am
     9    6   31 1
    10    7   12 1
    11    7   15 am
    12    7   33 1
    13    8    9 1
    14    8   10 1
    15    8   27 1
    16    8   28 1
    17    9   16 1
    18    9   29 1
    19   10   11 1
    20   10   13 2
    21   11   12 ar
    22   11   14 ar
    23   12   17 ar
    24   13   15 1
    25   13   30 1
    26   14   19 ar
    27   14   32 1
    28   17   20 ar
    29   17   34 1
    30   18   21 1
    31   19   20 ar
    32   19   35 1
    33   20   36 1
    34   21   22 ar
    35   21   23 ar
    36   22   24 ar
    37   22   37 1
    38   23   25 ar
    39   23   38 1
    40   24   26 ar
    41   24   40 1
    42   25   26 ar
    43   25   41 1
