@<TRIPOS>MOLECULE
DB11638
   44    47     0     0     0
SMALL
USER_CHARGES

@<TRIPOS>ATOM
      1 O1         -0.3845    0.9999    1.4854 O.3       1 <0>        -0.2196
      2 O2         -1.4690    1.4552   -1.1718 O.3       1 <0>        -0.3144
      3 O3          0.7851    2.0334   -1.0332 O.3       1 <0>        -0.3196
      4 O4         -1.0512    2.2137    1.0237 O.3       1 <0>        -0.1989
      5 O5          2.9815    2.7933   -1.0056 O.3       1 <0>        -0.3666
      6 C1         -0.0308    0.1633    0.3524 C.3       1 <0>         0.1612
      7 C2         -1.0061   -1.0522    0.4521 C.3       1 <0>        -0.0010
      8 C3          1.4407   -0.2674    0.6038 C.3       1 <0>         0.0034
      9 C4         -0.5499   -2.2575   -0.4127 C.3       1 <0>        -0.0381
     10 C5         -0.1429    0.9433   -0.9831 C.3       1 <0>         0.1976
     11 C6          1.8468   -1.4673   -0.2671 C.3       1 <0>        -0.0467
     12 C7          2.3870    0.9502    0.4283 C.3       1 <0>         0.0130
     13 C8         -2.4808   -0.6928    0.1543 C.3       1 <0>        -0.0421
     14 C9          0.8961   -2.6409   -0.0863 C.3       1 <0>        -0.0498
     15 C10        -2.0545    1.8347    0.0770 C.3       1 <0>         0.2027
     16 C11        -2.9421    0.6949    0.6107 C.3       1 <0>         0.0043
     17 C12         2.1481    1.6384   -0.9240 C.3       1 <0>         0.1621
     18 C13        -1.4438   -3.4902   -0.2297 C.3       1 <0>        -0.0621
     19 C14         3.8633    0.5987    0.6362 C.3       1 <0>        -0.0575
     20 C15        -2.8941    3.0846   -0.1770 C.3       1 <0>        -0.0077
     21 H1         -0.9907   -1.3785    1.5040 H         1 <0>         0.0334
     22 H2          1.5281   -0.5832    1.6544 H         1 <0>         0.0335
     23 H3         -0.5977   -1.9728   -1.4721 H         1 <0>         0.0302
     24 H4          0.0606    0.2954   -1.8421 H         1 <0>         0.0943
     25 H5          2.8535   -1.8067    0.0010 H         1 <0>         0.0269
     26 H6          1.8802   -1.1924   -1.3270 H         1 <0>         0.0269
     27 H7          2.1300    1.6688    1.2203 H         1 <0>         0.0350
     28 H8         -3.1351   -1.4359    0.6273 H         1 <0>         0.0271
     29 H9         -2.6664   -0.7785   -0.9249 H         1 <0>         0.0271
     30 H10         1.2204   -3.4632   -0.7358 H         1 <0>         0.0268
     31 H11         0.9637   -3.0093    0.9456 H         1 <0>         0.0268
     32 H12        -3.9675    0.8163    0.2379 H         1 <0>         0.0318
     33 H13        -3.0014    0.7321    1.7052 H         1 <0>         0.0318
     34 H14         2.4084    0.9948   -1.7705 H         1 <0>         0.0911
     35 H15        -1.0483   -4.3436   -0.7915 H         1 <0>         0.0233
     36 H16        -1.5081   -3.7806    0.8244 H         1 <0>         0.0233
     37 H17        -2.4580   -3.3085   -0.5978 H         1 <0>         0.0233
     38 H18         4.4719    1.5046    0.7269 H         1 <0>         0.0234
     39 H19         3.9997    0.0210    1.5564 H         1 <0>         0.0234
     40 H20         4.2636    0.0171   -0.2002 H         1 <0>         0.0234
     41 H21        -3.3739    3.4354    0.7430 H         1 <0>         0.0282
     42 H22        -2.2615    3.9014   -0.5443 H         1 <0>         0.0282
     43 H23        -3.6607    2.9056   -0.9383 H         1 <0>         0.0282
     44 H24         2.9904    3.2256   -0.1352 H         1 <0>         0.2125
@<TRIPOS>BOND
     1    1    4 1
     2    1    6 1
     3    2   10 1
     4    2   15 1
     5    3   10 1
     6    3   17 1
     7    4   15 1
     8    5   17 1
     9    5   44 1
    10    6    7 1
    11    6    8 1
    12    6   10 1
    13    7    9 1
    14    7   13 1
    15    7   21 1
    16    8   11 1
    17    8   12 1
    18    8   22 1
    19    9   14 1
    20    9   18 1
    21    9   23 1
    22   10   24 1
    23   11   14 1
    24   11   25 1
    25   11   26 1
    26   12   17 1
    27   12   19 1
    28   12   27 1
    29   13   16 1
    30   13   28 1
    31   13   29 1
    32   14   30 1
    33   14   31 1
    34   15   16 1
    35   15   20 1
    36   16   32 1
    37   16   33 1
    38   17   34 1
    39   18   35 1
    40   18   36 1
    41   18   37 1
    42   19   38 1
    43   19   39 1
    44   19   40 1
    45   20   41 1
    46   20   42 1
    47   20   43 1
