@<TRIPOS>MOLECULE
DB11963
   58    61     0     0     0
SMALL
USER_CHARGES

@<TRIPOS>ATOM
      1 Cl1         6.6504   -4.2710   -2.4612 Cl        1 <0>        -0.0805
      2 F1          6.1448   -6.0667   -0.1571 F         1 <0>        -0.2040
      3 O1         -0.0330   -0.1851    0.9089 O.2       1 <0>        -0.2705
      4 O2          1.0699    4.4788   -0.8029 O.3       1 <0>        -0.4932
      5 N1         -5.0282   -0.7406    0.5855 N.3       1 <0>        -0.2987
      6 N2          0.0712    2.0357    0.1532 N.am      1 <0>        -0.2790
      7 N3          4.2032   -0.9268    0.5595 N.pl3     1 <0>        -0.2988
      8 N4          5.5001    2.7430   -0.8468 N.ar      1 <0>        -0.2352
      9 N5          5.9492    0.4789   -0.1545 N.ar      1 <0>        -0.2200
     10 C1         -6.9438   -1.6264   -1.4362 C.3       1 <0>        -0.0507
     11 C2         -5.4386   -1.6596   -1.6747 C.3       1 <0>        -0.0402
     12 C3         -7.2484   -1.6949    0.0561 C.3       1 <0>        -0.0402
     13 C4         -4.7203   -0.5948   -0.8441 C.3       1 <0>        -0.0008
     14 C5         -6.4728   -0.6293    0.8319 C.3       1 <0>        -0.0008
     15 C6         -4.2974    0.2541    1.3704 C.3       1 <0>         0.0175
     16 C7         -2.8145    0.1076    1.2011 C.2       1 <0>        -0.0652
     17 C8         -2.0243    1.0972    0.7610 C.2       1 <0>        -0.0023
     18 C9         -0.5522    0.8877    0.6242 C.2       1 <0>         0.2409
     19 C10         1.4524    2.2201   -0.1024 C.ar      1 <0>         0.0766
     20 C11         3.6917    1.3428   -0.1249 C.ar      1 <0>         0.0424
     21 C12         2.3195    1.1690    0.1262 C.ar      1 <0>        -0.0244
     22 C13         1.9138    3.4331   -0.5721 C.ar      1 <0>         0.1433
     23 C14         4.1897    2.5659   -0.6030 C.ar      1 <0>         0.0796
     24 C15         4.6310    0.3356    0.0789 C.ar      1 <0>         0.1339
     25 C16         3.2799    3.5980   -0.8194 C.ar      1 <0>         0.0080
     26 C17         4.6966   -2.2281    0.3738 C.ar      1 <0>         0.0339
     27 C18         6.3086    1.6903   -0.6088 C.ar      1 <0>         0.1187
     28 C19         5.3533   -2.5697   -0.8123 C.ar      1 <0>        -0.0194
     29 C20         4.5346   -3.1911    1.3741 C.ar      1 <0>        -0.0377
     30 C21         0.8371    5.3740    0.2822 C.3       1 <0>         0.0789
     31 C22         5.8434   -3.8627   -0.9963 C.ar      1 <0>         0.0778
     32 C23         5.0244   -4.4842    1.1899 C.ar      1 <0>        -0.0232
     33 C24         5.6789   -4.8199    0.0048 C.ar      1 <0>         0.1417
     34 H1         -7.4261   -2.4604   -1.9576 H         1 <0>         0.0266
     35 H2         -7.3603   -0.7010   -1.8527 H         1 <0>         0.0266
     36 H3         -5.0493   -2.6526   -1.4162 H         1 <0>         0.0278
     37 H4         -5.2306   -1.5019   -2.7392 H         1 <0>         0.0278
     38 H5         -8.3237   -1.5629    0.2200 H         1 <0>         0.0278
     39 H6         -6.9865   -2.6902    0.4371 H         1 <0>         0.0278
     40 H7         -5.0021    0.4033   -1.2053 H         1 <0>         0.0427
     41 H8         -3.6499   -0.7227   -1.0399 H         1 <0>         0.0427
     42 H9         -6.6796   -0.7677    1.9001 H         1 <0>         0.0427
     43 H10        -6.8413    0.3673    0.5549 H         1 <0>         0.0427
     44 H11        -4.6226    1.2714    1.1150 H         1 <0>         0.0470
     45 H12        -4.5156    0.1095    2.4362 H         1 <0>         0.0470
     46 H13        -2.3899   -0.8560    1.4728 H         1 <0>         0.0586
     47 H14        -2.4412    2.0632    0.4957 H         1 <0>         0.0667
     48 H15        -0.5072    2.8501   -0.0420 H         1 <0>         0.1552
     49 H16         1.9925    0.2055    0.4790 H         1 <0>         0.0645
     50 H17         3.6388    4.5569   -1.1909 H         1 <0>         0.0676
     51 H18         3.5600   -0.8525    1.3430 H         1 <0>         0.1536
     52 H19         7.3630    1.8393   -0.8073 H         1 <0>         0.1048
     53 H20         5.4748   -1.8351   -1.6053 H         1 <0>         0.0652
     54 H21         4.0273   -2.9441    2.3035 H         1 <0>         0.0637
     55 H22         0.1125    6.1253   -0.0434 H         1 <0>         0.0660
     56 H23         0.4250    4.8424    1.1457 H         1 <0>         0.0660
     57 H24         1.7651    5.8819    0.5631 H         1 <0>         0.0660
     58 H25         4.8967   -5.2296    1.9693 H         1 <0>         0.0647
@<TRIPOS>BOND
     1    1   31 1
     2    2   33 1
     3    3   18 2
     4    4   22 1
     5    4   30 1
     6    5   13 1
     7    5   14 1
     8    5   15 1
     9    6   18 am
    10    6   19 1
    11    6   48 1
    12    7   24 1
    13    7   26 1
    14    7   51 1
    15    8   23 ar
    16    8   27 ar
    17    9   24 ar
    18    9   27 ar
    19   10   11 1
    20   10   12 1
    21   10   34 1
    22   10   35 1
    23   11   13 1
    24   11   36 1
    25   11   37 1
    26   12   14 1
    27   12   38 1
    28   12   39 1
    29   13   40 1
    30   13   41 1
    31   14   42 1
    32   14   43 1
    33   15   16 1
    34   15   44 1
    35   15   45 1
    36   16   17 2
    37   16   46 1
    38   17   18 1
    39   17   47 1
    40   19   21 ar
    41   19   22 ar
    42   20   21 ar
    43   20   23 ar
    44   20   24 ar
    45   21   49 1
    46   22   25 ar
    47   23   25 ar
    48   25   50 1
    49   26   28 ar
    50   26   29 ar
    51   27   52 1
    52   28   31 ar
    53   28   53 1
    54   29   32 ar
    55   29   54 1
    56   30   55 1
    57   30   56 1
    58   30   57 1
    59   31   33 ar
    60   32   33 ar
    61   32   58 1
