@<TRIPOS>MOLECULE
DB11952
   47    51     0     0     0
SMALL
USER_CHARGES

@<TRIPOS>ATOM
      1 Cl1        -4.7373    1.2104    2.5151 Cl        1 <0>        -0.0827
      2 O1         -2.4571    2.1112    1.4675 O.2       1 <0>        -0.2666
      3 N1         -0.9545    1.1574   -0.0777 N.am      1 <0>        -0.2788
      4 N2          1.3635   -1.1427   -1.1380 N.pl3     1 <0>        -0.3193
      5 N3          2.9399   -3.4935    0.0438 N.pl3     1 <0>        -0.3404
      6 N4          2.0553   -0.0145    0.8434 N.2       1 <0>        -0.2187
      7 N5          4.0146   -3.4051    1.9948 N.2       1 <0>        -0.2164
      8 N6          3.4352   -1.1063    2.5332 N.2       1 <0>        -0.2144
      9 C1          0.6321   -0.0186   -1.6638 C.3       1 <0>         0.0600
     10 C2         -0.6818    0.0677   -0.9274 C.2       1 <0>         0.0476
     11 C3         -1.5291   -0.9710   -1.0272 C.2       1 <0>        -0.0321
     12 C4         -2.7628   -1.0106   -0.2576 C.ar      1 <0>        -0.0096
     13 C5         -3.0579    0.0328    0.6191 C.ar      1 <0>         0.0653
     14 C6         -2.1284    1.1859    0.7250 C.2       1 <0>         0.2651
     15 C7          0.4221   -0.1890   -3.1573 C.3       1 <0>        -0.0411
     16 C8         -0.0869    2.3048    0.0176 C.ar      1 <0>         0.0498
     17 C9          2.0437   -1.1242    0.0713 C.2       1 <0>         0.1482
     18 C10        -3.6460   -2.0912   -0.3699 C.ar      1 <0>        -0.0537
     19 C11        -4.2327   -0.0008    1.3813 C.ar      1 <0>         0.0539
     20 C12         2.7291   -2.2333    0.5264 C.2       1 <0>         0.1253
     21 C13         0.4790    2.6511    1.2445 C.ar      1 <0>        -0.0377
     22 C14         0.1863    3.0687   -1.1170 C.ar      1 <0>        -0.0377
     23 C15        -4.8161   -2.1240    0.3889 C.ar      1 <0>        -0.0598
     24 C16        -5.1085   -1.0804    1.2640 C.ar      1 <0>        -0.0426
     25 C17         3.4060   -2.2029    1.7383 C.2       1 <0>         0.1825
     26 C18         1.3183    3.7616    1.3368 C.ar      1 <0>        -0.0598
     27 C19         1.0255    4.1789   -1.0247 C.ar      1 <0>        -0.0598
     28 C20         1.5915    4.5255    0.2022 C.ar      1 <0>        -0.0616
     29 C21         3.7149   -4.1576    0.9575 C.cat     1 <0>         0.0963
     30 C22         2.7404   -0.0732    2.0102 C.2       1 <0>         0.1205
     31 H1          1.2635    0.8632   -1.5495 H         1 <0>         0.0560
     32 H2         -1.3112   -1.8347   -1.6474 H         1 <0>         0.0642
     33 H3          1.3576   -2.0130   -1.6590 H         1 <0>         0.1482
     34 H4          1.3871   -0.1747   -3.6783 H         1 <0>         0.0251
     35 H5         -0.1860    0.6238   -3.5696 H         1 <0>         0.0251
     36 H6         -0.0553   -1.1392   -3.4209 H         1 <0>         0.0251
     37 H7         -3.4324   -2.9168   -1.0447 H         1 <0>         0.0624
     38 H8          0.2783    2.0659    2.1382 H         1 <0>         0.0638
     39 H9         -0.2601    2.8251   -2.0775 H         1 <0>         0.0638
     40 H10        -5.4979   -2.9647    0.2984 H         1 <0>         0.0618
     41 H11        -6.0260   -1.1296    1.8458 H         1 <0>         0.0632
     42 H12         1.7597    4.0306    2.2920 H         1 <0>         0.0618
     43 H13         1.2352    4.7762   -1.9073 H         1 <0>         0.0618
     44 H14         2.5901   -3.8705   -0.8270 H         1 <0>         0.1669
     45 H15         2.2443    5.3904    0.2742 H         1 <0>         0.0618
     46 H16         4.0234   -5.1822    0.8063 H         1 <0>         0.1027
     47 H17         2.7316    0.8332    2.6057 H         1 <0>         0.1048
@<TRIPOS>BOND
     1    1   19 1
     2    2   14 2
     3    3   10 1
     4    3   14 am
     5    3   16 1
     6    4    9 1
     7    4   17 1
     8    4   33 1
     9    5   20 1
    10    5   29 2
    11    5   44 1
    12    6   17 2
    13    6   30 1
    14    7   25 2
    15    7   29 1
    16    8   25 1
    17    8   30 2
    18    9   10 1
    19    9   15 1
    20    9   31 1
    21   10   11 2
    22   11   12 1
    23   11   32 1
    24   12   13 ar
    25   12   18 ar
    26   13   14 1
    27   13   19 ar
    28   15   34 1
    29   15   35 1
    30   15   36 1
    31   16   21 ar
    32   16   22 ar
    33   17   20 1
    34   18   23 ar
    35   18   37 1
    36   19   24 ar
    37   20   25 2
    38   21   26 ar
    39   21   38 1
    40   22   27 ar
    41   22   39 1
    42   23   24 ar
    43   23   40 1
    44   24   41 1
    45   26   28 ar
    46   26   42 1
    47   27   28 ar
    48   27   43 1
    49   28   45 1
    50   29   46 1
    51   30   47 1
