@<TRIPOS>MOLECULE
DB11186
   55    56     0     0     0
SMALL
USER_CHARGES

@<TRIPOS>ATOM
      1 O1          1.7868   -1.3192    0.3760 O.3       1 <0>        -0.4617
      2 O2          3.6425   -1.6274    1.7168 O.2       1 <0>        -0.2498
      3 O3         -1.0040   -1.2987    0.6400 O.3       1 <0>        -0.3752
      4 N1         -4.3503   -0.0932   -0.2980 N.3       1 <0>        -0.3007
      5 C1          3.6550    0.0482   -0.0288 C.3       1 <0>         0.0926
      6 C2          3.8079   -0.4247   -1.4875 C.3       1 <0>        -0.0332
      7 C3          5.1297    0.2541    0.3681 C.3       1 <0>        -0.0332
      8 C4          5.0535   -1.3073   -1.5056 C.3       1 <0>        -0.0517
      9 C5          5.9032   -0.8685   -0.3194 C.3       1 <0>        -0.0517
     10 C6          2.7830    1.2858    0.1404 C.ar      1 <0>        -0.0306
     11 C7          3.0555   -1.0623    0.8039 C.2       1 <0>         0.3178
     12 C8          1.7116    1.5092   -0.7252 C.ar      1 <0>        -0.0575
     13 C9          3.0553    2.1977    1.1610 C.ar      1 <0>        -0.0575
     14 C10         0.9135    2.6428   -0.5702 C.ar      1 <0>        -0.0615
     15 C11         2.2572    3.3311    1.3159 C.ar      1 <0>        -0.0615
     16 C12         1.0979   -2.3561    1.0818 C.3       1 <0>         0.1157
     17 C13         1.1864    3.5537    0.4504 C.ar      1 <0>        -0.0617
     18 C14        -0.2893   -2.5195    0.4911 C.3       1 <0>         0.0819
     19 C15        -3.0132   -0.0544    0.2751 C.3       1 <0>         0.0223
     20 C16        -2.3077   -1.3872    0.0824 C.3       1 <0>         0.0605
     21 C17        -5.0153    1.2037   -0.1499 C.3       1 <0>        -0.0039
     22 C18        -5.1524   -1.1468    0.3282 C.3       1 <0>        -0.0039
     23 C19        -4.2098    2.3165   -0.7882 C.3       1 <0>        -0.0524
     24 C20        -6.5257   -1.2479   -0.3029 C.3       1 <0>        -0.0524
     25 H1          2.9449   -0.9756   -1.8773 H         1 <0>         0.0279
     26 H2          3.9765    0.4318   -2.1542 H         1 <0>         0.0279
     27 H3          5.4986    1.2153   -0.0155 H         1 <0>         0.0279
     28 H4          5.3117    0.2480    1.4485 H         1 <0>         0.0279
     29 H5          4.7757   -2.3618   -1.3942 H         1 <0>         0.0266
     30 H6          5.5949   -1.2115   -2.4525 H         1 <0>         0.0266
     31 H7          6.8941   -0.5270   -0.6363 H         1 <0>         0.0266
     32 H8          6.0562   -1.7110    0.3646 H         1 <0>         0.0266
     33 H9          1.4651    0.8145   -1.5224 H         1 <0>         0.0621
     34 H10         3.8720    2.0451    1.8598 H         1 <0>         0.0621
     35 H11         0.0768    2.8141   -1.2412 H         1 <0>         0.0618
     36 H12         2.4669    4.0385    2.1128 H         1 <0>         0.0618
     37 H13         1.6558   -3.2946    0.9925 H         1 <0>         0.0721
     38 H14         1.0208   -2.0685    2.1368 H         1 <0>         0.0721
     39 H15         0.5636    4.4350    0.5722 H         1 <0>         0.0618
     40 H16        -0.2094   -2.7566   -0.5762 H         1 <0>         0.0594
     41 H17        -0.8194   -3.3286    1.0052 H         1 <0>         0.0594
     42 H18        -3.0298    0.2062    1.3421 H         1 <0>         0.0449
     43 H19        -2.3787    0.6936   -0.2133 H         1 <0>         0.0449
     44 H20        -2.2362   -1.6345   -0.9838 H         1 <0>         0.0572
     45 H21        -2.8090   -2.2032    0.6087 H         1 <0>         0.0572
     46 H22        -5.9796    1.2013   -0.6686 H         1 <0>         0.0424
     47 H23        -5.2064    1.4458    0.9032 H         1 <0>         0.0424
     48 H24        -5.2476   -1.0016    1.4116 H         1 <0>         0.0424
     49 H25        -4.7110   -2.1328    0.1633 H         1 <0>         0.0424
     50 H26        -4.8300    3.2162   -0.8723 H         1 <0>         0.0242
     51 H27        -3.8811    2.0541   -1.7997 H         1 <0>         0.0242
     52 H28        -3.3367    2.5986   -0.1916 H         1 <0>         0.0242
     53 H29        -7.0113   -2.1768    0.0176 H         1 <0>         0.0242
     54 H30        -6.4704   -1.2712   -1.3968 H         1 <0>         0.0242
     55 H31        -7.1881   -0.4319    0.0017 H         1 <0>         0.0242
@<TRIPOS>BOND
     1    1   11 1
     2    1   16 1
     3    2   11 2
     4    3   18 1
     5    3   20 1
     6    4   19 1
     7    4   21 1
     8    4   22 1
     9    5    6 1
    10    5    7 1
    11    5   10 1
    12    5   11 1
    13    6    8 1
    14    6   25 1
    15    6   26 1
    16    7    9 1
    17    7   27 1
    18    7   28 1
    19    8    9 1
    20    8   29 1
    21    8   30 1
    22    9   31 1
    23    9   32 1
    24   10   12 ar
    25   10   13 ar
    26   12   14 ar
    27   12   33 1
    28   13   15 ar
    29   13   34 1
    30   14   17 ar
    31   14   35 1
    32   15   17 ar
    33   15   36 1
    34   16   18 1
    35   16   37 1
    36   16   38 1
    37   17   39 1
    38   18   40 1
    39   18   41 1
    40   19   20 1
    41   19   42 1
    42   19   43 1
    43   20   44 1
    44   20   45 1
    45   21   23 1
    46   21   46 1
    47   21   47 1
    48   22   24 1
    49   22   48 1
    50   22   49 1
    51   23   50 1
    52   23   51 1
    53   23   52 1
    54   24   53 1
    55   24   54 1
    56   24   55 1
