@<TRIPOS>MOLECULE
DB11279
   62    64     0     0     0
SMALL
USER_CHARGES

@<TRIPOS>ATOM
      1 N1          4.6130    1.5243    0.1134 N.pl3     1 <0>        -0.2291
      2 N2         -4.9121    1.1279   -0.1037 N.pl3     1 <0>        -0.3304
      3 C1          0.0852   -1.5162   -0.0103 C.2       1 <0>        -0.0036
      4 C2          1.2000   -0.7675    0.0197 C.2       1 <0>        -0.0163
      5 C3         -1.2286   -0.8211   -0.0348 C.ar      1 <0>        -0.0166
      6 C4          3.5473    0.8085    0.0847 C.2       1 <0>         0.2025
      7 C5         -3.6658    0.4685   -0.0805 C.ar      1 <0>         0.0297
      8 C6          4.5517    3.0086    0.1206 C.3       1 <0>         0.1428
      9 C7          5.9634    0.9057    0.1409 C.3       1 <0>         0.1428
     10 C8         -5.5267    1.4916   -1.3652 C.3       1 <0>         0.0093
     11 C9         -5.5884    1.4632    1.1336 C.3       1 <0>         0.0093
     12 C10         0.2297   -2.9958   -0.0163 C.ar      1 <0>        -0.0168
     13 C11         1.1064    0.6846    0.0268 C.2       1 <0>        -0.0478
     14 C12         2.5084   -1.4040    0.0457 C.2       1 <0>        -0.0478
     15 C13        -1.8431   -0.5176    1.1618 C.ar      1 <0>        -0.0522
     16 C14        -1.7900   -0.5024   -1.2536 C.ar      1 <0>        -0.0522
     17 C15         2.2061    1.4497    0.0575 C.2       1 <0>         0.0098
     18 C16         3.6328   -0.6758    0.0770 C.2       1 <0>         0.0098
     19 C17        -3.0760    0.1345    1.1388 C.ar      1 <0>        -0.0401
     20 C18        -3.0228    0.1499   -1.2767 C.ar      1 <0>        -0.0401
     21 C19         4.4733    3.4982    1.5507 C.3       1 <0>        -0.0054
     22 C20         6.4399    0.6834   -1.2785 C.3       1 <0>        -0.0054
     23 C21        -4.9409    2.7839   -1.9088 C.3       1 <0>        -0.0494
     24 C22        -6.3404    0.2660    1.6900 C.3       1 <0>        -0.0494
     25 C23         0.3209   -3.6503   -1.2269 C.ar      1 <0>        -0.0540
     26 C24         0.2678   -3.6657    1.1886 C.ar      1 <0>        -0.0540
     27 C25         0.4562   -5.0386   -1.2328 C.ar      1 <0>        -0.0612
     28 C26         0.4031   -5.0540    1.1825 C.ar      1 <0>        -0.0612
     29 C27         0.4974   -5.7403   -0.0283 C.ar      1 <0>        -0.0617
     30 H1          5.4782    3.3767   -0.3367 H         1 <0>         0.1023
     31 H2          3.7506    3.3826   -0.5215 H         1 <0>         0.1023
     32 H3          6.6370    1.6119    0.6415 H         1 <0>         0.1023
     33 H4          5.9830    0.0068    0.7617 H         1 <0>         0.1023
     34 H5         -6.6027    1.6513   -1.2144 H         1 <0>         0.0461
     35 H6         -5.4817    0.6844   -2.1051 H         1 <0>         0.0461
     36 H7         -6.3217    2.2587    0.9459 H         1 <0>         0.0461
     37 H8         -4.9127    1.8979    1.8788 H         1 <0>         0.0461
     38 H9          0.1571    1.2069    0.0193 H         1 <0>         0.0626
     39 H10         2.6324   -2.4803    0.0297 H         1 <0>         0.0626
     40 H11        -1.3922   -0.7727    2.1168 H         1 <0>         0.0624
     41 H12        -1.2974   -0.7457   -2.1908 H         1 <0>         0.0624
     42 H13         2.0655    2.5216    0.0879 H         1 <0>         0.0683
     43 H14         4.5725   -1.2110    0.0685 H         1 <0>         0.0683
     44 H15        -3.5215    0.3543    2.1024 H         1 <0>         0.0636
     45 H16        -3.4260    0.3808   -2.2562 H         1 <0>         0.0636
     46 H17         3.5663    3.1507    2.0563 H         1 <0>         0.0291
     47 H18         5.3318    3.1613    2.1423 H         1 <0>         0.0291
     48 H19         4.4662    4.5929    1.5708 H         1 <0>         0.0291
     49 H20         5.7947   -0.0113   -1.8261 H         1 <0>         0.0291
     50 H21         6.4745    1.6202   -1.8458 H         1 <0>         0.0291
     51 H22         7.4508    0.2630   -1.2716 H         1 <0>         0.0291
     52 H23        -5.0758    3.6031   -1.1940 H         1 <0>         0.0245
     53 H24        -3.8707    2.7051   -2.1193 H         1 <0>         0.0245
     54 H25        -5.4456    3.0634   -2.8391 H         1 <0>         0.0245
     55 H26        -7.0778   -0.0996    0.9670 H         1 <0>         0.0245
     56 H27        -5.6802   -0.5703    1.9358 H         1 <0>         0.0245
     57 H28        -6.8760    0.5491    2.6018 H         1 <0>         0.0245
     58 H29         0.2903   -3.1142   -2.1712 H         1 <0>         0.0624
     59 H30         0.1954   -3.1419    2.1374 H         1 <0>         0.0624
     60 H31         0.5296   -5.5731   -2.1755 H         1 <0>         0.0618
     61 H32         0.4354   -5.6007    2.1204 H         1 <0>         0.0618
     62 H33         0.6029   -6.8213   -0.0328 H         1 <0>         0.0618
@<TRIPOS>BOND
     1    1    6 2
     2    1    8 1
     3    1    9 1
     4    2    7 1
     5    2   10 1
     6    2   11 1
     7    3    4 2
     8    3    5 1
     9    3   12 1
    10    4   13 1
    11    4   14 1
    12    5   15 ar
    13    5   16 ar
    14    6   17 1
    15    6   18 1
    16    7   19 ar
    17    7   20 ar
    18    8   21 1
    19    8   30 1
    20    8   31 1
    21    9   22 1
    22    9   32 1
    23    9   33 1
    24   10   23 1
    25   10   34 1
    26   10   35 1
    27   11   24 1
    28   11   36 1
    29   11   37 1
    30   12   25 ar
    31   12   26 ar
    32   13   17 2
    33   13   38 1
    34   14   18 2
    35   14   39 1
    36   15   19 ar
    37   15   40 1
    38   16   20 ar
    39   16   41 1
    40   17   42 1
    41   18   43 1
    42   19   44 1
    43   20   45 1
    44   21   46 1
    45   21   47 1
    46   21   48 1
    47   22   49 1
    48   22   50 1
    49   22   51 1
    50   23   52 1
    51   23   53 1
    52   23   54 1
    53   24   55 1
    54   24   56 1
    55   24   57 1
    56   25   27 ar
    57   25   58 1
    58   26   28 ar
    59   26   59 1
    60   27   29 ar
    61   27   60 1
    62   28   29 ar
    63   28   61 1
    64   29   62 1
