@<TRIPOS>MOLECULE
DB11757
   52    54     0     0     0
SMALL
USER_CHARGES

@<TRIPOS>ATOM
      1 O1         -3.6833   -2.7645    0.5532 O.2       1 <0>        -0.2652
      2 O2         -6.0765    1.0377   -0.7979 O.2       1 <0>        -0.2462
      3 O3          5.9040   -1.1656   -1.1185 O.3       1 <0>        -0.4914
      4 O4          7.2909    0.8115    0.2560 O.3       1 <0>        -0.4915
      5 N1         -3.7522    1.1465   -0.8011 N.am      1 <0>        -0.2767
      6 N2         -1.2282   -1.1365    0.0278 N.pl3     1 <0>        -0.3217
      7 N3         -4.9030   -0.8731   -0.1205 N.am      1 <0>        -0.2593
      8 N4         -1.2996    0.9690   -0.7014 N.2       1 <0>        -0.2101
      9 C1         -2.5505   -0.8214   -0.1011 C.2       1 <0>         0.1517
     10 C2         -2.5658    0.4715   -0.5486 C.cat     1 <0>         0.1687
     11 C3         -3.7163   -1.6046    0.1512 C.2       1 <0>         0.2824
     12 C4         -4.9892    0.4868   -0.5916 C.2       1 <0>         0.3336
     13 C5         -0.5147   -0.0268   -0.3453 C.2       1 <0>         0.1362
     14 C6         -3.7169    2.5251   -1.2738 C.3       1 <0>         0.0267
     15 C7         -6.1660   -1.5701    0.1001 C.3       1 <0>         0.0282
     16 C8         -0.6963   -2.4062    0.4735 C.3       1 <0>         0.0140
     17 C9         -3.7265    3.5074   -0.1209 C.3       1 <0>        -0.0469
     18 C10         0.8924   -0.0837   -0.3060 C.2       1 <0>        -0.0185
     19 C11        -6.6675   -1.3750    1.5160 C.3       1 <0>        -0.0468
     20 C12         1.6936    0.9739   -0.0185 C.2       1 <0>        -0.0510
     21 C13         3.1656    0.9279    0.0524 C.ar      1 <0>        -0.0212
     22 C14         3.8420   -0.1064   -0.5729 C.ar      1 <0>        -0.0092
     23 C15         3.8418    1.9201    0.7426 C.ar      1 <0>        -0.0509
     24 C16         5.2346   -0.1496   -0.5062 C.ar      1 <0>         0.1620
     25 C17         5.9309    0.8420    0.1850 C.ar      1 <0>         0.1615
     26 C18         5.2344    1.8767    0.8095 C.ar      1 <0>        -0.0157
     27 C19         5.1186   -2.1389   -1.8041 C.3       1 <0>         0.0790
     28 C20         7.8669    0.1056    1.3534 C.3       1 <0>         0.0790
     29 H1         -2.8345    2.6775   -1.9058 H         1 <0>         0.0491
     30 H2         -4.5953    2.7051   -1.9040 H         1 <0>         0.0491
     31 H3         -6.9187   -1.2074   -0.6084 H         1 <0>         0.0491
     32 H4         -6.0340   -2.6404   -0.0943 H         1 <0>         0.0491
     33 H5          0.2396   -2.2548    1.0160 H         1 <0>         0.0456
     34 H6         -1.3920   -2.8795    1.1678 H         1 <0>         0.0456
     35 H7         -0.5394   -3.0378   -0.4040 H         1 <0>         0.0456
     36 H8         -4.6193    3.3796    0.5002 H         1 <0>         0.0247
     37 H9         -2.8513    3.3705    0.5229 H         1 <0>         0.0247
     38 H10        -3.7159    4.5355   -0.4956 H         1 <0>         0.0247
     39 H11         1.3419   -1.0539   -0.4899 H         1 <0>         0.0654
     40 H12        -5.9468   -1.7558    2.2472 H         1 <0>         0.0247
     41 H13        -6.8334   -0.3150    1.7346 H         1 <0>         0.0247
     42 H14        -7.6137   -1.9052    1.6623 H         1 <0>         0.0247
     43 H15         1.2406    1.9395    0.1985 H         1 <0>         0.0625
     44 H16         3.2822   -0.8433   -1.1320 H         1 <0>         0.0661
     45 H17         3.3133    2.7320    1.2349 H         1 <0>         0.0625
     46 H18         5.7704    2.6529    1.3491 H         1 <0>         0.0655
     47 H19         4.4582   -2.6825   -1.1198 H         1 <0>         0.0660
     48 H20         5.8135   -2.8749   -2.2222 H         1 <0>         0.0660
     49 H21         4.5783   -1.6998   -2.6497 H         1 <0>         0.0660
     50 H22         7.5710   -0.9481    1.3321 H         1 <0>         0.0660
     51 H23         7.5668    0.5614    2.3022 H         1 <0>         0.0660
     52 H24         8.9553    0.1649    1.2657 H         1 <0>         0.0660
@<TRIPOS>BOND
     1    1   11 2
     2    2   12 2
     3    3   24 1
     4    3   27 1
     5    4   25 1
     6    4   28 1
     7    5   10 2
     8    5   12 am
     9    5   14 1
    10    6    9 2
    11    6   13 1
    12    6   16 1
    13    7   11 am
    14    7   12 am
    15    7   15 1
    16    8   10 1
    17    8   13 2
    18    9   10 1
    19    9   11 1
    20   13   18 1
    21   14   17 1
    22   14   29 1
    23   14   30 1
    24   15   19 1
    25   15   31 1
    26   15   32 1
    27   16   33 1
    28   16   34 1
    29   16   35 1
    30   17   36 1
    31   17   37 1
    32   17   38 1
    33   18   20 2
    34   18   39 1
    35   19   40 1
    36   19   41 1
    37   19   42 1
    38   20   21 1
    39   20   43 1
    40   21   22 ar
    41   21   23 ar
    42   22   24 ar
    43   22   44 1
    44   23   26 ar
    45   23   45 1
    46   24   25 ar
    47   25   26 ar
    48   26   46 1
    49   27   47 1
    50   27   48 1
    51   27   49 1
    52   28   50 1
    53   28   51 1
    54   28   52 1
