@<TRIPOS>MOLECULE
DB11943
   42    45     0     0     0
SMALL
USER_CHARGES

@<TRIPOS>ATOM
      1 Cl1         0.9781    1.4115   -0.1352 Cl        1 <0>        -0.0794
      2 F1          2.8758   -3.2425   -0.0302 F         1 <0>        -0.2035
      3 F2         -1.8931    1.0787    2.5543 F         1 <0>        -0.2016
      4 F3         -1.9020    5.3762    0.5620 F         1 <0>        -0.2018
      5 O1          6.2968    0.0955    0.2977 O.3       1 <0>        -0.3887
      6 O2         -2.0467   -4.2094    0.1084 O.2       1 <0>        -0.2863
      7 O3         -4.5386   -3.8435   -0.6588 O.3       1 <0>        -0.4770
      8 O4         -5.4965   -2.0905    0.4550 O.2       1 <0>        -0.2449
      9 N1          3.1438   -0.5290   -0.1202 N.pl3     1 <0>        -0.3215
     10 N2         -1.7781   -0.1154    0.0698 N.pl3     1 <0>        -0.2960
     11 N3         -1.7838    2.0693   -0.9402 N.ar      1 <0>        -0.2091
     12 N4         -1.7893    4.2340   -1.9301 N.pl3     1 <0>        -0.3408
     13 C1          4.9855    0.3416   -0.2588 C.3       1 <0>         0.0864
     14 C2          3.8311    0.3652    0.7479 C.3       1 <0>         0.0399
     15 C3          4.2923   -0.8710   -0.8878 C.3       1 <0>         0.0399
     16 C4          1.8634   -1.0953   -0.0531 C.ar      1 <0>         0.0861
     17 C5          0.7059   -0.3112   -0.0320 C.ar      1 <0>         0.0892
     18 C6         -0.5716   -0.8962    0.0465 C.ar      1 <0>         0.0791
     19 C7          1.7716   -2.4820   -0.0102 C.ar      1 <0>         0.1465
     20 C8         -0.6395   -2.3068    0.0589 C.ar      1 <0>         0.0506
     21 C9          0.5217   -3.0919    0.0400 C.ar      1 <0>        -0.0117
     22 C10        -1.9572   -2.9887    0.0673 C.2       1 <0>         0.2035
     23 C11        -2.9900   -0.8012    0.0203 C.2       1 <0>         0.0296
     24 C12        -3.1607   -2.1283    0.0147 C.2       1 <0>         0.1224
     25 C13        -1.8109    1.3127    0.1879 C.ar      1 <0>         0.1758
     26 C14        -1.8682    1.8596    1.4666 C.ar      1 <0>         0.1688
     27 C15        -4.5269   -2.6534   -0.0219 C.2       1 <0>         0.3420
     28 C16        -1.8993    3.2439    1.5936 C.ar      1 <0>         0.0159
     29 C17        -1.8153    3.4110   -0.7774 C.ar      1 <0>         0.1542
     30 C18        -1.8727    4.0416    0.4551 C.ar      1 <0>         0.1656
     31 H1          5.0041    1.2166   -0.9207 H         1 <0>         0.0625
     32 H2          4.0474   -0.0915    1.7194 H         1 <0>         0.0490
     33 H3          3.3927    1.3509    0.8966 H         1 <0>         0.0490
     34 H4          4.1246   -0.8094   -1.9658 H         1 <0>         0.0490
     35 H5          4.7233   -1.8396   -0.6204 H         1 <0>         0.0490
     36 H6          6.5170    0.9087    0.7833 H         1 <0>         0.2099
     37 H7          0.4708   -4.1771    0.0552 H         1 <0>         0.0654
     38 H8         -3.8460   -0.1312   -0.0059 H         1 <0>         0.0823
     39 H9         -1.9437    3.6999    2.5777 H         1 <0>         0.0677
     40 H10        -5.4396   -4.2287   -0.7035 H         1 <0>         0.2954
     41 H11        -2.2205    5.1487   -1.8776 H         1 <0>         0.1438
     42 H12        -1.7557    3.7684   -2.8283 H         1 <0>         0.1438
@<TRIPOS>BOND
     1    1   17 1
     2    2   19 1
     3    3   26 1
     4    4   30 1
     5    5   13 1
     6    5   36 1
     7    6   22 2
     8    7   27 1
     9    7   40 1
    10    8   27 2
    11    9   14 1
    12    9   15 1
    13    9   16 1
    14   10   18 1
    15   10   23 2
    16   10   25 1
    17   11   25 ar
    18   11   29 ar
    19   12   29 1
    20   12   41 1
    21   12   42 1
    22   13   14 1
    23   13   15 1
    24   13   31 1
    25   14   32 1
    26   14   33 1
    27   15   34 1
    28   15   35 1
    29   16   17 ar
    30   16   19 ar
    31   17   18 ar
    32   18   20 ar
    33   19   21 ar
    34   20   21 ar
    35   20   22 1
    36   21   37 1
    37   22   24 1
    38   23   24 1
    39   23   38 1
    40   24   27 1
    41   25   26 ar
    42   26   28 ar
    43   28   30 ar
    44   28   39 1
    45   29   30 ar
