@<TRIPOS>MOLECULE
DB11915
   68    70     0     0     0
SMALL
USER_CHARGES

@<TRIPOS>ATOM
      1 O1         -2.2003    0.3587    0.0924 O.3       1 <0>        -0.4599
      2 O2          4.6602    2.4976    1.0494 O.3       1 <0>        -0.4914
      3 O3          6.5746    0.8124   -0.0497 O.3       1 <0>        -0.4914
      4 O4         -2.1747    1.5635    2.0568 O.2       1 <0>        -0.2491
      5 N1          0.9707   -2.3378    0.0669 N.3       1 <0>        -0.2946
      6 N2         -4.5585    2.7595    1.1787 N.3       1 <0>        -0.3182
      7 C1         -1.4690   -1.9427    0.0303 C.3       1 <0>         0.0092
      8 C2          1.2430   -1.0580    0.7692 C.3       1 <0>         0.0394
      9 C3         -1.2496   -0.5522    0.6361 C.3       1 <0>         0.1088
     10 C4         -0.3363   -2.8920    0.4453 C.3       1 <0>         0.0057
     11 C5          0.1630   -0.0438    0.3381 C.3       1 <0>         0.0044
     12 C6         -2.8279   -2.5189    0.4362 C.3       1 <0>        -0.0433
     13 C7          2.0379   -3.3096    0.3195 C.3       1 <0>         0.0035
     14 C8          2.6618   -0.5413    0.5295 C.ar      1 <0>        -0.0233
     15 C9          3.3217   -2.8232   -0.3485 C.3       1 <0>        -0.0144
     16 C10         3.6543   -1.4018    0.0198 C.ar      1 <0>        -0.0378
     17 C11        -4.0088   -1.8551   -0.2860 C.3       1 <0>        -0.0463
     18 C12         3.0345    0.7639    0.8925 C.ar      1 <0>        -0.0114
     19 C13         4.9600   -0.9305   -0.1854 C.ar      1 <0>        -0.0128
     20 C14        -3.9275   -2.0087   -1.8054 C.3       1 <0>        -0.0627
     21 C15        -5.3223   -2.4521    0.2247 C.3       1 <0>        -0.0627
     22 C16         4.3396    1.2211    0.6971 C.ar      1 <0>         0.1618
     23 C17        -2.5835    1.3837    0.9169 C.2       1 <0>         0.3246
     24 C18         5.3000    0.3772    0.1507 C.ar      1 <0>         0.1618
     25 C19        -3.5910    2.2676    0.1965 C.3       1 <0>         0.1057
     26 C20        -2.8997    3.4051   -0.5908 C.3       1 <0>        -0.0211
     27 C21        -1.9969    2.8459   -1.6958 C.3       1 <0>        -0.0607
     28 C22        -2.0980    4.3664    0.2946 C.3       1 <0>        -0.0607
     29 C23         4.5010    3.5045    0.0521 C.3       1 <0>         0.0790
     30 C24         7.4966   -0.1178   -0.6148 C.3       1 <0>         0.0790
     31 H1         -1.4239   -1.8575   -1.0618 H         1 <0>         0.0349
     32 H2          1.1609   -1.2202    1.8543 H         1 <0>         0.0513
     33 H3         -1.3738   -0.6360    1.7249 H         1 <0>         0.0737
     34 H4         -0.4875   -3.8504   -0.0677 H         1 <0>         0.0431
     35 H5         -0.3778   -3.0928    1.5243 H         1 <0>         0.0431
     36 H6          0.2903    0.9177    0.8474 H         1 <0>         0.0319
     37 H7          0.2582    0.1832   -0.7334 H         1 <0>         0.0319
     38 H8         -2.8465   -3.5940    0.2121 H         1 <0>         0.0272
     39 H9         -2.9594   -2.4326    1.5227 H         1 <0>         0.0272
     40 H10         1.7850   -4.2868   -0.1098 H         1 <0>         0.0430
     41 H11         2.1901   -3.4571    1.3972 H         1 <0>         0.0430
     42 H12         3.2197   -2.8820   -1.4397 H         1 <0>         0.0326
     43 H13         4.1426   -3.4878   -0.0535 H         1 <0>         0.0326
     44 H14        -4.0819   -0.7955   -0.0479 H         1 <0>         0.0296
     45 H15         2.3132    1.4395    1.3442 H         1 <0>         0.0659
     46 H16         5.6662   -1.6395   -0.6057 H         1 <0>         0.0658
     47 H17        -4.8611   -1.6834   -2.2780 H         1 <0>         0.0232
     48 H18        -3.1311   -1.3932   -2.2334 H         1 <0>         0.0232
     49 H19        -3.7542   -3.0511   -2.0927 H         1 <0>         0.0232
     50 H20        -5.4170   -2.3175    1.3076 H         1 <0>         0.0232
     51 H21        -6.1827   -1.9646   -0.2464 H         1 <0>         0.0232
     52 H22        -5.3823   -3.5244    0.0092 H         1 <0>         0.0232
     53 H23        -4.1535    1.6397   -0.5062 H         1 <0>         0.0577
     54 H24        -3.6868    3.9923   -1.0837 H         1 <0>         0.0316
     55 H25        -5.0724    1.9737    1.5760 H         1 <0>         0.1190
     56 H26        -5.2497    3.3453    0.7120 H         1 <0>         0.1190
     57 H27        -1.1050    2.3592   -1.2899 H         1 <0>         0.0233
     58 H28        -2.5359    2.1228   -2.3167 H         1 <0>         0.0233
     59 H29        -1.6556    3.6544   -2.3517 H         1 <0>         0.0233
     60 H30        -1.2568    3.8633    0.7823 H         1 <0>         0.0233
     61 H31        -1.6885    5.1861   -0.3062 H         1 <0>         0.0233
     62 H32        -2.7273    4.8124    1.0708 H         1 <0>         0.0233
     63 H33         3.4538    3.5737   -0.2588 H         1 <0>         0.0660
     64 H34         4.8023    4.4636    0.4822 H         1 <0>         0.0660
     65 H35         5.1371    3.2940   -0.8136 H         1 <0>         0.0660
     66 H36         8.4574    0.3988   -0.7100 H         1 <0>         0.0660
     67 H37         7.1977   -0.4204   -1.6243 H         1 <0>         0.0660
     68 H38         7.6615   -0.9751    0.0468 H         1 <0>         0.0660
@<TRIPOS>BOND
     1    1    9 1
     2    1   23 1
     3    2   22 1
     4    2   29 1
     5    3   24 1
     6    3   30 1
     7    4   23 2
     8    5    8 1
     9    5   10 1
    10    5   13 1
    11    6   25 1
    12    6   55 1
    13    6   56 1
    14    7    9 1
    15    7   10 1
    16    7   12 1
    17    7   31 1
    18    8   11 1
    19    8   14 1
    20    8   32 1
    21    9   11 1
    22    9   33 1
    23   10   34 1
    24   10   35 1
    25   11   36 1
    26   11   37 1
    27   12   17 1
    28   12   38 1
    29   12   39 1
    30   13   15 1
    31   13   40 1
    32   13   41 1
    33   14   16 ar
    34   14   18 ar
    35   15   16 1
    36   15   42 1
    37   15   43 1
    38   16   19 ar
    39   17   20 1
    40   17   21 1
    41   17   44 1
    42   18   22 ar
    43   18   45 1
    44   19   24 ar
    45   19   46 1
    46   20   47 1
    47   20   48 1
    48   20   49 1
    49   21   50 1
    50   21   51 1
    51   21   52 1
    52   22   24 ar
    53   23   25 1
    54   25   26 1
    55   25   53 1
    56   26   27 1
    57   26   28 1
    58   26   54 1
    59   27   57 1
    60   27   58 1
    61   27   59 1
    62   28   60 1
    63   28   61 1
    64   28   62 1
    65   29   63 1
    66   29   64 1
    67   29   65 1
    68   30   66 1
    69   30   67 1
    70   30   68 1
