@<TRIPOS>MOLECULE
DB11299
   33    33     0     0     0
SMALL
USER_CHARGES

@<TRIPOS>ATOM
      1 O1         -0.9103   -0.4456    0.1668 O.3       1 <0>        -0.3752
      2 O2          4.2598    1.2019    0.7535 O.3       1 <0>        -0.4914
      3 O3          5.2212   -0.6956   -1.0350 O.3       1 <0>        -0.5033
      4 C1         -3.1557    0.2175   -0.3348 C.3       1 <0>        -0.0297
      5 C2         -2.2490   -0.5262    0.6357 C.3       1 <0>         0.0481
      6 C3         -4.6127    0.1849    0.1175 C.3       1 <0>        -0.0538
      7 C4         -0.0140   -1.1400    1.0241 C.3       1 <0>         0.0728
      8 C5          1.3785   -1.0190    0.4784 C.ar      1 <0>        -0.0182
      9 C6         -5.5082    0.9651   -0.8315 C.3       1 <0>        -0.0652
     10 C7          2.1818    0.0453    0.8720 C.ar      1 <0>        -0.0109
     11 C8          1.8523   -1.9721   -0.4162 C.ar      1 <0>        -0.0527
     12 C9          3.4762    0.1580    0.3643 C.ar      1 <0>         0.1616
     13 C10         3.1465   -1.8593   -0.9239 C.ar      1 <0>        -0.0162
     14 C11         3.9585   -0.7945   -0.5335 C.ar      1 <0>         0.1585
     15 C12         4.1931    2.3906   -0.0317 C.3       1 <0>         0.0790
     16 H1         -3.0580   -0.2222   -1.3352 H         1 <0>         0.0287
     17 H2         -2.8106    1.2550   -0.4288 H         1 <0>         0.0287
     18 H3         -2.3147   -0.0755    1.6329 H         1 <0>         0.0560
     19 H4         -2.5533   -1.5774    0.7018 H         1 <0>         0.0560
     20 H5         -4.7005    0.6110    1.1237 H         1 <0>         0.0263
     21 H6         -4.9623   -0.8526    0.1729 H         1 <0>         0.0263
     22 H7         -0.3019   -2.1966    1.0927 H         1 <0>         0.0610
     23 H8         -0.0609   -0.7197    2.0366 H         1 <0>         0.0610
     24 H9         -5.2054    2.0159   -0.8820 H         1 <0>         0.0230
     25 H10        -5.4677    0.5465   -1.8421 H         1 <0>         0.0230
     26 H11        -6.5472    0.9272   -0.4894 H         1 <0>         0.0230
     27 H12         1.8089    0.7901    1.5705 H         1 <0>         0.0659
     28 H13         1.2276   -2.8043   -0.7285 H         1 <0>         0.0622
     29 H14         3.5164   -2.6043   -1.6233 H         1 <0>         0.0655
     30 H15         5.6554    0.0747   -0.6299 H         1 <0>         0.2923
     31 H16         4.9007    3.1144    0.3817 H         1 <0>         0.0660
     32 H17         3.1873    2.8205    0.0121 H         1 <0>         0.0660
     33 H18         4.4685    2.1864   -1.0712 H         1 <0>         0.0660
@<TRIPOS>BOND
     1    1    5 1
     2    1    7 1
     3    2   12 1
     4    2   15 1
     5    3   14 1
     6    3   30 1
     7    4    5 1
     8    4    6 1
     9    4   16 1
    10    4   17 1
    11    5   18 1
    12    5   19 1
    13    6    9 1
    14    6   20 1
    15    6   21 1
    16    7    8 1
    17    7   22 1
    18    7   23 1
    19    8   10 ar
    20    8   11 ar
    21    9   24 1
    22    9   25 1
    23    9   26 1
    24   10   12 ar
    25   10   27 1
    26   11   13 ar
    27   11   28 1
    28   12   14 ar
    29   13   14 ar
    30   13   29 1
    31   15   31 1
    32   15   32 1
    33   15   33 1
