@<TRIPOS>MOLECULE
DB11901
   48    51     0     0     0
SMALL
USER_CHARGES

@<TRIPOS>ATOM
      1 S1         -1.1363    1.6580    1.4387 S.2       1 <0>        -0.0174
      2 F1          2.9541    3.1464   -1.0017 F         1 <0>        -0.2046
      3 F2         -4.5703    3.8298   -0.2790 F         1 <0>        -0.1658
      4 F3         -6.4443    3.2443   -1.2006 F         1 <0>        -0.1658
      5 F4         -6.3272    3.4910    0.9567 F         1 <0>        -0.1658
      6 O1         -2.5885   -2.6793   -0.7972 O.2       1 <0>        -0.2725
      7 O2          5.4925    2.5562   -1.2902 O.2       1 <0>        -0.2701
      8 N1          0.0829   -0.5217    0.2090 N.pl3     1 <0>        -0.2671
      9 N2         -2.2205   -0.5583    0.1486 N.am      1 <0>        -0.2181
     10 N3         -5.9242   -0.7400    0.3656 N.ar      1 <0>        -0.2422
     11 N4          6.2798    1.1901    0.4097 N.am      1 <0>        -0.3143
     12 N5         -8.7601    1.0780    0.2790 N.1       1 <0>        -0.1893
     13 C1         -0.2950   -1.9315   -0.1375 C.3       1 <0>         0.1179
     14 C2          0.4822   -2.6540   -1.2627 C.3       1 <0>        -0.0224
     15 C3          0.1532   -3.0411    0.8472 C.3       1 <0>        -0.0224
     16 C4          0.5415   -3.9055   -0.3664 C.3       1 <0>        -0.0482
     17 C5         -1.8556   -1.8204   -0.3124 C.2       1 <0>         0.2495
     18 C6         -1.1010    0.2263    0.5476 C.2       1 <0>         0.1516
     19 C7          1.3945    0.0333    0.0434 C.ar      1 <0>         0.0392
     20 C8         -3.5894   -0.1447    0.1662 C.ar      1 <0>         0.0617
     21 C9          1.5452    1.3446   -0.4078 C.ar      1 <0>        -0.0042
     22 C10         2.5197   -0.7378    0.3341 C.ar      1 <0>        -0.0394
     23 C11        -3.9360    1.1935    0.0154 C.ar      1 <0>        -0.0240
     24 C12        -4.6121   -1.0641    0.3369 C.ar      1 <0>         0.0509
     25 C13         2.8212    1.8848   -0.5678 C.ar      1 <0>         0.1372
     26 C14         3.7958   -0.1977    0.1739 C.ar      1 <0>        -0.0451
     27 C15         3.9464    1.1134   -0.2771 C.ar      1 <0>         0.0719
     28 C16        -5.2755    1.5660    0.0394 C.ar      1 <0>         0.0923
     29 C17        -6.2226    0.5700    0.2159 C.ar      1 <0>         0.1518
     30 C18         5.2789    1.6734   -0.4407 C.2       1 <0>         0.2466
     31 C19        -5.6451    3.0014   -0.1197 C.3       1 <0>         0.4201
     32 C20        -7.6224    0.8502    0.2507 C.1       1 <0>         0.1197
     33 C21         7.6453    1.6630    0.3859 C.3       1 <0>         0.0004
     34 H1          1.4656   -2.2607   -1.5303 H         1 <0>         0.0291
     35 H2         -0.0735   -2.7974   -2.1957 H         1 <0>         0.0291
     36 H3         -0.6501   -3.4722    1.4561 H         1 <0>         0.0291
     37 H4          0.9701   -2.8047    1.5313 H         1 <0>         0.0291
     38 H5         -0.2092   -4.6617   -0.6222 H         1 <0>         0.0267
     39 H6          1.5207   -4.3874   -0.3015 H         1 <0>         0.0267
     40 H7          0.7019    1.9565   -0.7106 H         1 <0>         0.0665
     41 H8          2.4649   -1.7571    0.6874 H         1 <0>         0.0636
     42 H9         -3.2026    1.9514   -0.2308 H         1 <0>         0.0643
     43 H10        -4.4369   -2.1188    0.5151 H         1 <0>         0.0849
     44 H11         4.6477   -0.8378    0.3854 H         1 <0>         0.0626
     45 H12         6.0443    0.5302    1.1437 H         1 <0>         0.1487
     46 H13         8.3005    0.8471    0.6998 H         1 <0>         0.0426
     47 H14         7.7321    2.4966    1.0872 H         1 <0>         0.0426
     48 H15         7.9175    1.9981   -0.6179 H         1 <0>         0.0426
@<TRIPOS>BOND
     1    1   18 2
     2    2   25 1
     3    3   31 1
     4    4   31 1
     5    5   31 1
     6    6   17 2
     7    7   30 2
     8    8   13 1
     9    8   18 1
    10    8   19 1
    11    9   17 am
    12    9   18 1
    13    9   20 1
    14   10   24 ar
    15   10   29 ar
    16   11   30 am
    17   11   33 1
    18   11   45 1
    19   12   32 3
    20   13   14 1
    21   13   15 1
    22   13   17 1
    23   14   16 1
    24   14   34 1
    25   14   35 1
    26   15   16 1
    27   15   36 1
    28   15   37 1
    29   16   38 1
    30   16   39 1
    31   19   21 ar
    32   19   22 ar
    33   20   23 ar
    34   20   24 ar
    35   21   25 ar
    36   21   40 1
    37   22   26 ar
    38   22   41 1
    39   23   28 ar
    40   23   42 1
    41   24   43 1
    42   25   27 ar
    43   26   27 ar
    44   26   44 1
    45   27   30 1
    46   28   29 ar
    47   28   31 1
    48   29   32 1
    49   33   46 1
    50   33   47 1
    51   33   48 1
