@<TRIPOS>MOLECULE
DB11160
   40    41     0     0     0
SMALL
USER_CHARGES

@<TRIPOS>ATOM
      1 O1          0.5378    0.4452   -0.5534 O.3       1 <0>        -0.4904
      2 N1          3.9445   -0.4526    0.5304 N.3       1 <0>        -0.3051
      3 C1         -1.4180    1.2824    0.5512 C.ar      1 <0>        -0.0014
      4 C2         -1.6400   -0.0264    1.2346 C.3       1 <0>         0.0010
      5 C3          2.5350   -0.6418    0.1886 C.3       1 <0>         0.0325
      6 C4         -0.3431    1.4669   -0.3120 C.ar      1 <0>         0.1240
      7 C5          1.8985    0.6787   -0.2142 C.3       1 <0>         0.1022
      8 C6         -2.5123   -0.9864    0.4520 C.ar      1 <0>        -0.0429
      9 C7         -2.3050    2.3331    0.7854 C.ar      1 <0>        -0.0548
     10 C8         -0.1451    2.6902   -0.9439 C.ar      1 <0>        -0.0197
     11 C9         -2.1120    3.5624    0.1550 C.ar      1 <0>        -0.0613
     12 C10        -1.9193   -1.8632   -0.4386 C.ar      1 <0>        -0.0583
     13 C11        -3.8819   -0.9635    0.6458 C.ar      1 <0>        -0.0583
     14 C12        -1.0322    3.7409   -0.7096 C.ar      1 <0>        -0.0583
     15 C13         4.6719    0.1225   -0.6004 C.3       1 <0>        -0.0129
     16 C14         4.5475   -1.7225    0.9337 C.3       1 <0>        -0.0129
     17 C15        -2.7227   -2.7468   -1.1595 C.ar      1 <0>        -0.0615
     18 C16        -4.6852   -1.8472   -0.0751 C.ar      1 <0>        -0.0615
     19 C17        -4.1055   -2.7387   -0.9778 C.ar      1 <0>        -0.0617
     20 H1         -2.0881    0.1437    2.2240 H         1 <0>         0.0363
     21 H2         -0.6814   -0.5082    1.4701 H         1 <0>         0.0363
     22 H3          1.9874   -1.0427    1.0514 H         1 <0>         0.0460
     23 H4          2.4063   -1.3752   -0.6191 H         1 <0>         0.0460
     24 H5          2.3657    1.1072   -1.1057 H         1 <0>         0.0709
     25 H6          1.9803    1.3994    0.6105 H         1 <0>         0.0709
     26 H7         -3.1506    2.2099    1.4568 H         1 <0>         0.0622
     27 H8          0.6860    2.8410   -1.6269 H         1 <0>         0.0654
     28 H9         -2.8028    4.3805    0.3369 H         1 <0>         0.0618
     29 H10        -0.8438   -1.8858   -0.5836 H         1 <0>         0.0620
     30 H11        -4.3429   -0.2740    1.3466 H         1 <0>         0.0620
     31 H12        -0.8834    4.6975   -1.2020 H         1 <0>         0.0619
     32 H13         4.4273    1.1787   -0.7493 H         1 <0>         0.0391
     33 H14         4.5009   -0.4265   -1.5338 H         1 <0>         0.0391
     34 H15         5.7512    0.1113   -0.4042 H         1 <0>         0.0391
     35 H16         5.5871   -1.5738    1.2466 H         1 <0>         0.0391
     36 H17         4.5325   -2.4631    0.1258 H         1 <0>         0.0391
     37 H18         4.0194   -2.1427    1.7969 H         1 <0>         0.0391
     38 H19        -2.2712   -3.4423   -1.8610 H         1 <0>         0.0618
     39 H20        -5.7620   -1.8412    0.0666 H         1 <0>         0.0618
     40 H21        -4.7310   -3.4270   -1.5387 H         1 <0>         0.0618
@<TRIPOS>BOND
     1    1    6 1
     2    1    7 1
     3    2    5 1
     4    2   15 1
     5    2   16 1
     6    3    4 1
     7    3    6 ar
     8    3    9 ar
     9    4    8 1
    10    4   20 1
    11    4   21 1
    12    5    7 1
    13    5   22 1
    14    5   23 1
    15    6   10 ar
    16    7   24 1
    17    7   25 1
    18    8   12 ar
    19    8   13 ar
    20    9   11 ar
    21    9   26 1
    22   10   14 ar
    23   10   27 1
    24   11   14 ar
    25   11   28 1
    26   12   17 ar
    27   12   29 1
    28   13   18 ar
    29   13   30 1
    30   14   31 1
    31   15   32 1
    32   15   33 1
    33   15   34 1
    34   16   35 1
    35   16   36 1
    36   16   37 1
    37   17   19 ar
    38   17   38 1
    39   18   19 ar
    40   18   39 1
    41   19   40 1
