@<TRIPOS>MOLECULE
DB11570
   47    47     0     0     0
SMALL
USER_CHARGES

@<TRIPOS>ATOM
      1 O1         -0.0161    0.7196    0.3758 O.3       1 <0>        -0.4609
      2 O2         -0.8076    2.4063    1.7278 O.2       1 <0>        -0.2450
      3 N1         -6.1220   -0.3849   -0.5109 N.pl3     1 <0>        -0.3360
      4 C1          2.3064    0.1659   -0.0669 C.3       1 <0>        -0.0069
      5 C2          3.7397    0.7171    0.0871 C.3       1 <0>        -0.0471
      6 C3          2.1502   -1.3139    0.3493 C.3       1 <0>        -0.0500
      7 C4          4.7822   -0.0462   -0.7363 C.3       1 <0>        -0.0529
      8 C5          1.3237    1.0887    0.6725 C.3       1 <0>         0.0956
      9 C6          6.2029    0.4979   -0.5631 C.3       1 <0>        -0.0559
     10 C7          2.4686   -1.6129    1.8079 C.3       1 <0>        -0.0649
     11 C8          7.2466   -0.2717   -1.3579 C.3       1 <0>        -0.0653
     12 C9         -0.9882    1.4640    0.9722 C.2       1 <0>         0.3392
     13 C10        -2.3366    0.9784    0.5841 C.ar      1 <0>         0.0591
     14 C11        -4.8418    0.0762   -0.1396 C.ar      1 <0>         0.0292
     15 C12        -3.3807    1.8790    0.5332 C.ar      1 <0>        -0.0460
     16 C13        -2.5035   -0.3584    0.2851 C.ar      1 <0>        -0.0460
     17 C14        -4.6473    1.4229    0.1674 C.ar      1 <0>        -0.0399
     18 C15        -3.7699   -0.8145   -0.0807 C.ar      1 <0>        -0.0399
     19 C16        -6.5213   -1.7491   -0.2277 C.3       1 <0>         0.0004
     20 C17        -7.0497    0.4951   -1.1932 C.3       1 <0>         0.0004
     21 H1          2.0452    0.2078   -1.1339 H         1 <0>         0.0333
     22 H2          4.0321    0.7145    1.1440 H         1 <0>         0.0269
     23 H3          3.7542    1.7675   -0.2318 H         1 <0>         0.0269
     24 H4          1.1186   -1.6324    0.1526 H         1 <0>         0.0266
     25 H5          2.7748   -1.9488   -0.2885 H         1 <0>         0.0266
     26 H6          4.5053   -0.0098   -1.7969 H         1 <0>         0.0265
     27 H7          4.7907   -1.1014   -0.4434 H         1 <0>         0.0265
     28 H8          1.4906    1.0542    1.7550 H         1 <0>         0.0700
     29 H9          1.4769    2.1227    0.3385 H         1 <0>         0.0700
     30 H10         6.2284    1.5503   -0.8701 H         1 <0>         0.0263
     31 H11         6.4761    0.4695    0.4985 H         1 <0>         0.0263
     32 H12         1.8050   -1.0706    2.4870 H         1 <0>         0.0230
     33 H13         2.3346   -2.6821    2.0039 H         1 <0>         0.0230
     34 H14         3.5038   -1.3611    2.0541 H         1 <0>         0.0230
     35 H15         7.0255   -0.2355   -2.4294 H         1 <0>         0.0230
     36 H16         7.2770   -1.3213   -1.0487 H         1 <0>         0.0230
     37 H17         8.2399    0.1595   -1.1994 H         1 <0>         0.0230
     38 H18        -3.2411    2.9298    0.7689 H         1 <0>         0.0626
     39 H19        -1.6879   -1.0736    0.3338 H         1 <0>         0.0626
     40 H20        -5.4626    2.1403    0.1419 H         1 <0>         0.0636
     41 H21        -3.8850   -1.8673   -0.3225 H         1 <0>         0.0636
     42 H22        -7.6113   -1.8568   -0.2616 H         1 <0>         0.0428
     43 H23        -6.2062   -2.0599    0.7750 H         1 <0>         0.0428
     44 H24        -6.0995   -2.4385   -0.9665 H         1 <0>         0.0428
     45 H25        -7.8373   -0.0752   -1.6983 H         1 <0>         0.0428
     46 H26        -6.5463    1.0879   -1.9654 H         1 <0>         0.0428
     47 H27        -7.5373    1.1710   -0.4829 H         1 <0>         0.0428
@<TRIPOS>BOND
     1    1    8 1
     2    1   12 1
     3    2   12 2
     4    3   14 1
     5    3   19 1
     6    3   20 1
     7    4    5 1
     8    4    6 1
     9    4    8 1
    10    4   21 1
    11    5    7 1
    12    5   22 1
    13    5   23 1
    14    6   10 1
    15    6   24 1
    16    6   25 1
    17    7    9 1
    18    7   26 1
    19    7   27 1
    20    8   28 1
    21    8   29 1
    22    9   11 1
    23    9   30 1
    24    9   31 1
    25   10   32 1
    26   10   33 1
    27   10   34 1
    28   11   35 1
    29   11   36 1
    30   11   37 1
    31   12   13 1
    32   13   15 ar
    33   13   16 ar
    34   14   17 ar
    35   14   18 ar
    36   15   17 ar
    37   15   38 1
    38   16   18 ar
    39   16   39 1
    40   17   40 1
    41   18   41 1
    42   19   42 1
    43   19   43 1
    44   19   44 1
    45   20   45 1
    46   20   46 1
    47   20   47 1
