@<TRIPOS>MOLECULE
DB11986
   75    80     0     0     0
SMALL
USER_CHARGES

@<TRIPOS>ATOM
      1 F1          7.0759   -3.0655    1.0861 F         1 <0>        -0.2054
      2 F2          3.6357   -4.7010   -1.7280 F         1 <0>        -0.2054
      3 O1          1.8674   -2.4392    1.5796 O.3       1 <0>        -0.3796
      4 O2         -0.0586    4.1585    1.5542 O.2       1 <0>        -0.2697
      5 N1         -4.9007    0.5066   -0.2628 N.pl3     1 <0>        -0.3274
      6 N2         -7.2330   -0.9875   -0.9610 N.3       1 <0>        -0.3024
      7 N3         -0.4467    0.3861    1.6289 N.pl3     1 <0>        -0.3402
      8 N4          1.1210    2.5718    0.2908 N.am      1 <0>        -0.2644
      9 N5          4.1270    4.2064    0.8766 N.pl3     1 <0>        -0.2752
     10 N6          2.7997    4.1228    1.0663 N.2       1 <0>        -0.1574
     11 C1         -0.5961   -0.9965    2.0383 C.3       1 <0>         0.0248
     12 C2         -0.3930   -1.9280    0.8416 C.3       1 <0>        -0.0110
     13 C3          0.3975   -1.3179    3.1557 C.3       1 <0>        -0.0110
     14 C4         -5.3832   -0.5579    0.6224 C.3       1 <0>         0.0250
     15 C5         -5.3136    0.4002   -1.6679 C.3       1 <0>         0.0250
     16 C6         -6.8905   -0.7596    0.4481 C.3       1 <0>         0.0144
     17 C7         -6.8231    0.1687   -1.7678 C.3       1 <0>         0.0144
     18 C8         -3.6903    1.1490    0.0199 C.ar      1 <0>         0.0315
     19 C9          1.0777   -2.0553    0.4552 C.3       1 <0>         0.0493
     20 C10         1.8195   -1.4703    2.6253 C.3       1 <0>         0.0493
     21 C11        -1.4652    1.1009    0.9600 C.ar      1 <0>         0.0413
     22 C12        -2.6715    0.4599    0.6779 C.ar      1 <0>        -0.0190
     23 C13        -1.2777    2.4310    0.5842 C.ar      1 <0>         0.0580
     24 C14        -3.5027    2.4792   -0.3558 C.ar      1 <0>        -0.0398
     25 C15        -8.6675   -1.2323   -1.1073 C.3       1 <0>        -0.0126
     26 C16        -2.2964    3.1202   -0.0736 C.ar      1 <0>        -0.0461
     27 C17        -0.0291    3.1289    0.8636 C.2       1 <0>         0.2511
     28 C18         2.4563    3.0386    0.3675 C.2       1 <0>         0.1546
     29 C19         3.5567    2.4263   -0.2702 C.ar      1 <0>         0.0418
     30 C20         4.6438    3.2178    0.0832 C.ar      1 <0>         0.0677
     31 C21         3.7592    1.3078   -1.0956 C.ar      1 <0>        -0.0457
     32 C22         5.0589    1.0284   -1.5366 C.ar      1 <0>        -0.0423
     33 C23         5.2968   -0.1549   -2.4156 C.3       1 <0>        -0.0022
     34 C24         5.9472    2.9568   -0.3450 C.ar      1 <0>        -0.0360
     35 C25         6.1327    1.8401   -1.1665 C.ar      1 <0>        -0.0562
     36 C26         5.3177   -1.4754   -1.6738 C.ar      1 <0>        -0.0376
     37 C27         4.4499   -2.5006   -2.0501 C.ar      1 <0>        -0.0228
     38 C28         6.2048   -1.6662   -0.6145 C.ar      1 <0>        -0.0228
     39 C29         6.2242   -2.8822    0.0686 C.ar      1 <0>         0.1264
     40 C30         4.4691   -3.7164   -1.3668 C.ar      1 <0>         0.1264
     41 C31         5.3563   -3.9073   -0.3075 C.ar      1 <0>         0.0088
     42 H1         -1.5882   -1.1543    2.4776 H         1 <0>         0.0499
     43 H2         -0.9710   -1.6246   -0.0367 H         1 <0>         0.0305
     44 H3         -0.7524   -2.9240    1.1320 H         1 <0>         0.0305
     45 H4          0.0996   -2.2705    3.6129 H         1 <0>         0.0305
     46 H5          0.3702   -0.5546    3.9419 H         1 <0>         0.0305
     47 H6         -5.1943   -0.3053    1.6733 H         1 <0>         0.0476
     48 H7         -4.8612   -1.4970    0.3980 H         1 <0>         0.0476
     49 H8         -4.7723   -0.4299   -2.1402 H         1 <0>         0.0476
     50 H9         -5.0704    1.3069   -2.2337 H         1 <0>         0.0476
     51 H10        -7.1928   -1.6236    1.0525 H         1 <0>         0.0442
     52 H11        -7.4255    0.1161    0.8400 H         1 <0>         0.0442
     53 H12        -7.3555    1.0743   -1.4469 H         1 <0>         0.0442
     54 H13        -7.0746   -0.0019   -2.8217 H         1 <0>         0.0442
     55 H14         0.4420    0.8495    1.7749 H         1 <0>         0.1464
     56 H15         1.1939   -2.8276   -0.3120 H         1 <0>         0.0560
     57 H16         1.4659   -1.1185    0.0392 H         1 <0>         0.0560
     58 H17         2.2244   -0.5190    2.2612 H         1 <0>         0.0560
     59 H18         2.4771   -1.8173    3.4288 H         1 <0>         0.0560
     60 H19        -2.8366   -0.5774    0.9420 H         1 <0>         0.0655
     61 H20        -4.2891    3.0377   -0.8566 H         1 <0>         0.0636
     62 H21        -8.9171   -1.4382   -2.1541 H         1 <0>         0.0391
     63 H22        -9.2709   -0.3819   -0.7696 H         1 <0>         0.0391
     64 H23        -8.9666   -2.1168   -0.5339 H         1 <0>         0.0391
     65 H24        -2.1648    4.1574   -0.3717 H         1 <0>         0.0626
     66 H25         1.0081    1.7325   -0.2734 H         1 <0>         0.1566
     67 H26         2.9248    0.6756   -1.3852 H         1 <0>         0.0628
     68 H27         4.5281   -0.1699   -3.2002 H         1 <0>         0.0361
     69 H28         6.2476   -0.0530   -2.9558 H         1 <0>         0.0361
     70 H29         4.6260    4.9678    1.3193 H         1 <0>         0.1890
     71 H30         6.7801    3.5882   -0.0563 H         1 <0>         0.0639
     72 H31         7.1385    1.6136   -1.5143 H         1 <0>         0.0621
     73 H32         3.7524   -2.3664   -2.8722 H         1 <0>         0.0649
     74 H33         6.8974   -0.8863   -0.3117 H         1 <0>         0.0649
     75 H34         5.3709   -4.8537    0.2247 H         1 <0>         0.0675
@<TRIPOS>BOND
     1    1   39 1
     2    2   40 1
     3    3   19 1
     4    3   20 1
     5    4   27 2
     6    5   14 1
     7    5   15 1
     8    5   18 1
     9    6   16 1
    10    6   17 1
    11    6   25 1
    12    7   11 1
    13    7   21 1
    14    7   55 1
    15    8   27 am
    16    8   28 1
    17    8   66 1
    18    9   10 1
    19    9   30 2
    20    9   70 1
    21   10   28 1
    22   11   12 1
    23   11   13 1
    24   11   42 1
    25   12   19 1
    26   12   43 1
    27   12   44 1
    28   13   20 1
    29   13   45 1
    30   13   46 1
    31   14   16 1
    32   14   47 1
    33   14   48 1
    34   15   17 1
    35   15   49 1
    36   15   50 1
    37   16   51 1
    38   16   52 1
    39   17   53 1
    40   17   54 1
    41   18   22 ar
    42   18   24 ar
    43   19   56 1
    44   19   57 1
    45   20   58 1
    46   20   59 1
    47   21   22 ar
    48   21   23 ar
    49   22   60 1
    50   23   26 ar
    51   23   27 1
    52   24   26 ar
    53   24   61 1
    54   25   62 1
    55   25   63 1
    56   25   64 1
    57   26   65 1
    58   28   29 2
    59   29   30 ar
    60   29   31 ar
    61   30   34 ar
    62   31   32 ar
    63   31   67 1
    64   32   33 1
    65   32   35 ar
    66   33   36 1
    67   33   68 1
    68   33   69 1
    69   34   35 ar
    70   34   71 1
    71   35   72 1
    72   36   37 ar
    73   36   38 ar
    74   37   40 ar
    75   37   73 1
    76   38   39 ar
    77   38   74 1
    78   39   41 ar
    79   40   41 ar
    80   41   75 1
