@<TRIPOS>MOLECULE
DB11995
   76    81     0     0     0
SMALL
USER_CHARGES

@<TRIPOS>ATOM
      1 Cl1        -7.7880    2.8154   -0.8626 Cl        1 <0>        -0.0800
      2 Cl2         6.0812    4.1956    1.5419 Cl        1 <0>        -0.0830
      3 S1          0.4853   -0.3187   -0.3034 S.3       1 <0>        -0.0367
      4 S2          2.1966    4.6754   -0.0711 S.3       1 <0>        -0.0936
      5 O1        -11.6804   -2.3873    1.4429 O.3       1 <0>        -0.4804
      6 O2        -10.1598   -3.4439    0.1134 O.2       1 <0>        -0.2507
      7 O3         -2.6556    3.0422    0.4027 O.2       1 <0>        -0.2697
      8 N1          5.8307   -0.9013   -0.3494 N.3       1 <0>        -0.2964
      9 N2          3.1637    0.1152   -0.2611 N.pl3     1 <0>        -0.3204
     10 N3         -8.0377   -0.1027   -0.1986 N.pl3     1 <0>        -0.3140
     11 N4          0.1725    2.1983    0.1964 N.2       1 <0>        -0.2221
     12 N5         -1.8306    0.8781   -0.0343 N.am      1 <0>        -0.2606
     13 N6         -5.7595   -0.4566    0.2543 N.ar      1 <0>        -0.2381
     14 C1          7.2212   -1.0150    0.0862 C.3       1 <0>         0.0105
     15 C2          7.5086   -2.4499    0.5417 C.3       1 <0>        -0.0373
     16 C3          8.1594   -0.5978   -1.0514 C.3       1 <0>        -0.0373
     17 C4          8.9749   -2.6267    0.9328 C.3       1 <0>        -0.0516
     18 C5          9.6247   -0.7763   -0.6581 C.3       1 <0>        -0.0516
     19 C6          9.9130   -2.2009   -0.1931 C.3       1 <0>        -0.0530
     20 C7          5.5381    0.4690   -0.7897 C.3       1 <0>         0.0150
     21 C8          4.9173   -1.2910    0.7330 C.3       1 <0>         0.0150
     22 C9          4.0947    0.5957   -1.2856 C.3       1 <0>         0.0255
     23 C10         3.4626   -1.2210    0.2661 C.3       1 <0>         0.0255
     24 C11         1.8982    0.6448   -0.1363 C.2       1 <0>         0.0981
     25 C12       -10.7481   -1.1370   -0.3161 C.3       1 <0>         0.0591
     26 C13       -10.3513   -0.0132    0.6391 C.3       1 <0>        -0.0242
     27 C14        -9.8065   -1.2029   -1.5167 C.3       1 <0>        -0.0242
     28 C15        -8.8688   -0.0451    1.0102 C.3       1 <0>         0.0143
     29 C16        -8.3258   -1.1962   -1.1310 C.3       1 <0>         0.0143
     30 C17         1.5296    1.9516    0.1272 C.2       1 <0>         0.1081
     31 C18       -10.8062   -2.4497    0.4088 C.2       1 <0>         0.3079
     32 C19        -6.7358    0.4043   -0.1111 C.ar      1 <0>         0.1397
     33 C20        -0.4751    1.0740   -0.0151 C.2       1 <0>         0.1669
     34 C21         2.5073    3.0407    0.3283 C.2       1 <0>         0.0414
     35 C22        -6.5217    1.7426   -0.3998 C.ar      1 <0>         0.0815
     36 C23         3.7669    2.8655    0.8550 C.2       1 <0>        -0.0270
     37 C24        -4.2236    1.3620    0.0628 C.ar      1 <0>         0.0566
     38 C25        -5.2222    2.2284   -0.3075 C.ar      1 <0>        -0.0265
     39 C26        -2.8232    1.8500    0.1709 C.2       1 <0>         0.2512
     40 C27        -4.5094    0.0517    0.3332 C.ar      1 <0>         0.0419
     41 C28         4.4884    4.0916    0.9322 C.2       1 <0>         0.0486
     42 C29         3.7517    5.1559    0.4608 C.2       1 <0>        -0.0054
     43 H1          7.4018   -0.3446    0.9397 H         1 <0>         0.0462
     44 H2          6.9368   -2.7286    1.4316 H         1 <0>         0.0280
     45 H3          7.2565   -3.1645   -0.2528 H         1 <0>         0.0280
     46 H4          8.0561    0.4602   -1.3107 H         1 <0>         0.0280
     47 H5          7.9528   -1.1837   -1.9565 H         1 <0>         0.0280
     48 H6          9.1888   -2.0318    1.8294 H         1 <0>         0.0266
     49 H7          9.1641   -3.6745    1.1924 H         1 <0>         0.0266
     50 H8         10.2685   -0.5305   -1.5102 H         1 <0>         0.0266
     51 H9          9.8763   -0.0730    0.1456 H         1 <0>         0.0266
     52 H10         9.8019   -2.8896   -1.0397 H         1 <0>         0.0265
     53 H11        10.9526   -2.2753    0.1449 H         1 <0>         0.0265
     54 H12         6.1394    0.7515   -1.6581 H         1 <0>         0.0442
     55 H13         5.7583    1.1870    0.0052 H         1 <0>         0.0442
     56 H14         5.0569   -0.6519    1.6151 H         1 <0>         0.0442
     57 H15         5.0552   -2.3299    1.0423 H         1 <0>         0.0442
     58 H16         3.8967    1.6283   -1.5904 H         1 <0>         0.0476
     59 H17         3.9615   -0.0148   -2.1889 H         1 <0>         0.0476
     60 H18         3.2743   -1.9744   -0.5098 H         1 <0>         0.0476
     61 H19         2.8222   -1.4586    1.1248 H         1 <0>         0.0476
     62 H20       -11.7623   -0.9526   -0.6943 H         1 <0>         0.0414
     63 H21       -10.9532   -0.0224    1.5548 H         1 <0>         0.0288
     64 H22       -10.5620    0.9446    0.1445 H         1 <0>         0.0288
     65 H23        -9.9987   -0.3256   -2.1490 H         1 <0>         0.0288
     66 H24       -10.0178   -2.0829   -2.1360 H         1 <0>         0.0288
     67 H25        -8.6392    0.8516    1.5992 H         1 <0>         0.0464
     68 H26        -8.6506   -0.9122    1.6457 H         1 <0>         0.0464
     69 H27        -8.0344   -2.1508   -0.6783 H         1 <0>         0.0464
     70 H28        -7.7312   -1.0792   -2.0456 H         1 <0>         0.0464
     71 H29        -2.0982   -0.0747   -0.2607 H         1 <0>         0.1571
     72 H30         4.1438    1.9335    1.2521 H         1 <0>         0.0644
     73 H31        -5.0123    3.2707   -0.5312 H         1 <0>         0.0641
     74 H32       -11.7326   -3.2371    1.9301 H         1 <0>         0.2951
     75 H33        -3.7760   -0.6735    0.6655 H         1 <0>         0.0838
     76 H34         4.0466    6.1945    0.4009 H         1 <0>         0.0708
@<TRIPOS>BOND
     1    1   35 1
     2    2   41 1
     3    3   24 1
     4    3   33 1
     5    4   34 1
     6    4   42 1
     7    5   31 1
     8    5   74 1
     9    6   31 2
    10    7   39 2
    11    8   14 1
    12    8   20 1
    13    8   21 1
    14    9   22 1
    15    9   23 1
    16    9   24 1
    17   10   28 1
    18   10   29 1
    19   10   32 1
    20   11   30 1
    21   11   33 2
    22   12   33 1
    23   12   39 am
    24   12   71 1
    25   13   32 ar
    26   13   40 ar
    27   14   15 1
    28   14   16 1
    29   14   43 1
    30   15   17 1
    31   15   44 1
    32   15   45 1
    33   16   18 1
    34   16   46 1
    35   16   47 1
    36   17   19 1
    37   17   48 1
    38   17   49 1
    39   18   19 1
    40   18   50 1
    41   18   51 1
    42   19   52 1
    43   19   53 1
    44   20   22 1
    45   20   54 1
    46   20   55 1
    47   21   23 1
    48   21   56 1
    49   21   57 1
    50   22   58 1
    51   22   59 1
    52   23   60 1
    53   23   61 1
    54   24   30 2
    55   25   26 1
    56   25   27 1
    57   25   31 1
    58   25   62 1
    59   26   28 1
    60   26   63 1
    61   26   64 1
    62   27   29 1
    63   27   65 1
    64   27   66 1
    65   28   67 1
    66   28   68 1
    67   29   69 1
    68   29   70 1
    69   30   34 1
    70   32   35 ar
    71   34   36 2
    72   35   38 ar
    73   36   41 1
    74   36   72 1
    75   37   38 ar
    76   37   39 1
    77   37   40 ar
    78   38   73 1
    79   40   75 1
    80   41   42 2
    81   42   76 1
