@<TRIPOS>MOLECULE
DB11274
   85    91     0     0     0
SMALL
USER_CHARGES

@<TRIPOS>ATOM
      1 O1          2.1962    0.4631   -1.4839 O.3       1 <0>        -0.2983
      2 O2          1.8169   -1.6014   -0.4244 O.3       1 <0>        -0.3481
      3 O3          2.9853    1.9688    1.5966 O.2       1 <0>        -0.2704
      4 O4          5.7198   -2.6517    1.2937 O.2       1 <0>        -0.2735
      5 O5         -0.4510    1.9338   -2.1591 O.2       1 <0>        -0.2754
      6 N1          3.3043   -0.0453    0.4392 N.am      1 <0>        -0.2334
      7 N2          4.7583   -2.0835   -0.7166 N.am      1 <0>        -0.2900
      8 N3          0.5574    1.4510   -0.1172 N.am      1 <0>        -0.2796
      9 N4         -4.2004    2.2744   -0.2650 N.3       1 <0>        -0.3008
     10 N5         -7.5266   -2.7245    0.2000 N.pl3     1 <0>        -0.3604
     11 C1          3.9744   -1.1789   -1.5452 C.3       1 <0>         0.0987
     12 C2          2.7911   -0.6267   -0.7711 C.3       1 <0>         0.2691
     13 C3          1.9250    1.5192   -0.5525 C.3       1 <0>         0.2201
     14 C4          4.2185   -0.7666    1.3191 C.3       1 <0>         0.1076
     15 C5          3.6993   -1.9892   -2.8114 C.3       1 <0>        -0.0261
     16 C6          5.3124   -3.1747   -1.5029 C.3       1 <0>         0.0154
     17 C7          2.8096    1.2308    0.6395 C.2       1 <0>         0.2712
     18 C8         -3.6673   -0.1151    0.3187 C.3       1 <0>         0.0014
     19 C9          4.9803   -2.8130   -2.9458 C.3       1 <0>        -0.0352
     20 C10        -4.6948    0.8798   -0.3804 C.3       1 <0>         0.0210
     21 C11         4.9722   -1.9221    0.6377 C.2       1 <0>         0.2367
     22 C12        -1.8339    1.5088   -0.2583 C.3       1 <0>         0.0489
     23 C13        -2.2721    0.0478   -0.2978 C.3       1 <0>        -0.0324
     24 C14         2.2436    2.8558   -1.1958 C.3       1 <0>         0.0085
     25 C15         3.4757   -1.2940    2.5464 C.3       1 <0>        -0.0232
     26 C16        -2.8796    2.4193   -0.9012 C.3       1 <0>         0.0100
     27 C17        -6.1597    0.7149    0.1805 C.3       1 <0>        -0.0095
     28 C18        -4.1769   -1.5463    0.2795 C.2       1 <0>        -0.0334
     29 C19        -0.5179    1.6652   -0.9624 C.2       1 <0>         0.2198
     30 C20         2.7543   -0.1948    3.3407 C.3       1 <0>        -0.0446
     31 C21        -5.5661   -1.7204    0.2441 C.2       1 <0>         0.0064
     32 C22        -6.5583   -0.7214    0.1963 C.2       1 <0>        -0.0206
     33 C23         3.6821    2.8816   -1.7171 C.3       1 <0>        -0.0580
     34 C24         2.0171    4.0040   -0.2099 C.3       1 <0>        -0.0580
     35 C25        -5.1195    3.2553   -0.8502 C.3       1 <0>        -0.0124
     36 C26        -6.1702   -2.9634    0.2474 C.2       1 <0>         0.0470
     37 C27        -3.4125   -2.7181    0.3520 C.2       1 <0>        -0.0576
     38 C28        -7.7723   -1.3668    0.1716 C.2       1 <0>         0.0060
     39 C29         3.7058    0.9047    3.8150 C.3       1 <0>        -0.0626
     40 C30         1.6449    0.4166    2.4815 C.3       1 <0>        -0.0626
     41 C31        -5.4177   -4.1358    0.2959 C.2       1 <0>        -0.0378
     42 C32        -4.0232   -3.9828    0.3521 C.2       1 <0>        -0.0595
     43 H1          4.6505   -0.3527   -1.8113 H         1 <0>         0.0572
     44 H2          4.9971   -0.0562    1.6150 H         1 <0>         0.0598
     45 H3          3.5145   -1.3540   -3.6824 H         1 <0>         0.0286
     46 H4          2.8508   -2.6707   -2.6968 H         1 <0>         0.0286
     47 H5          4.8115   -4.0978   -1.1917 H         1 <0>         0.0465
     48 H6          6.3862   -3.2758   -1.3203 H         1 <0>         0.0465
     49 H7         -3.6049    0.1591    1.3825 H         1 <0>         0.0364
     50 H8          4.8581   -3.6930   -3.5830 H         1 <0>         0.0281
     51 H9          5.7776   -2.1905   -3.3695 H         1 <0>         0.0281
     52 H10        -4.7379    0.6089   -1.4481 H         1 <0>         0.0471
     53 H11        -1.7190    1.8169    0.7903 H         1 <0>         0.0407
     54 H12        -1.5368   -0.5594    0.2451 H         1 <0>         0.0279
     55 H13        -2.2701   -0.3219   -1.3324 H         1 <0>         0.0279
     56 H14         1.6115    3.0285   -2.0729 H         1 <0>         0.0345
     57 H15         4.1854   -1.7957    3.2170 H         1 <0>         0.0290
     58 H16         2.7504   -2.0625    2.2476 H         1 <0>         0.0290
     59 H17        -2.9596    2.2195   -1.9789 H         1 <0>         0.0434
     60 H18        -2.5338    3.4570   -0.8001 H         1 <0>         0.0434
     61 H19         0.3430    1.3992    0.8688 H         1 <0>         0.1519
     62 H20        -6.8728    1.2675   -0.4413 H         1 <0>         0.0329
     63 H21        -6.2152    1.1134    1.2010 H         1 <0>         0.0329
     64 H22         1.6239   -2.1414   -1.2060 H         1 <0>         0.2145
     65 H23         2.3082   -0.6589    4.2308 H         1 <0>         0.0296
     66 H24         4.4166    2.7349   -0.9187 H         1 <0>         0.0234
     67 H25         3.8981    3.8496   -2.1835 H         1 <0>         0.0234
     68 H26         3.8478    2.1141   -2.4801 H         1 <0>         0.0234
     69 H27         2.8041    4.0815    0.5451 H         1 <0>         0.0234
     70 H28         2.0320    4.9551   -0.7563 H         1 <0>         0.0234
     71 H29         1.0475    3.9489    0.2935 H         1 <0>         0.0234
     72 H30        -6.0498    3.3192   -0.2776 H         1 <0>         0.0391
     73 H31        -5.3591    3.0242   -1.8942 H         1 <0>         0.0391
     74 H32        -4.6873    4.2623   -0.8143 H         1 <0>         0.0391
     75 H33        -2.3290   -2.6699    0.4140 H         1 <0>         0.0621
     76 H34        -8.7871   -0.9965    0.1345 H         1 <0>         0.0810
     77 H35         4.4509    1.2552    3.1012 H         1 <0>         0.0232
     78 H36         4.2915    0.5106    4.6558 H         1 <0>         0.0232
     79 H37         3.1552    1.7669    4.2076 H         1 <0>         0.0232
     80 H38         1.3136   -0.1637    1.6197 H         1 <0>         0.0232
     81 H39         1.3625    1.4654    2.6416 H         1 <0>         0.0232
     82 H40         0.7674    0.0711    3.0750 H         1 <0>         0.0232
     83 H41        -8.2407   -3.4394    0.1908 H         1 <0>         0.1653
     84 H42        -5.8798   -5.1161    0.2998 H         1 <0>         0.0638
     85 H43        -3.3974   -4.8712    0.4031 H         1 <0>         0.0618
@<TRIPOS>BOND
     1    1   12 1
     2    1   13 1
     3    2   12 1
     4    2   64 1
     5    3   17 2
     6    4   21 2
     7    5   29 2
     8    6   12 1
     9    6   14 1
    10    6   17 am
    11    7   11 1
    12    7   16 1
    13    7   21 am
    14    8   13 1
    15    8   29 am
    16    8   61 1
    17    9   20 1
    18    9   26 1
    19    9   35 1
    20   10   36 1
    21   10   38 2
    22   10   83 1
    23   11   12 1
    24   11   15 1
    25   11   43 1
    26   13   17 1
    27   13   24 1
    28   14   21 1
    29   14   25 1
    30   14   44 1
    31   15   19 1
    32   15   45 1
    33   15   46 1
    34   16   19 1
    35   16   47 1
    36   16   48 1
    37   18   20 1
    38   18   23 1
    39   18   28 1
    40   18   49 1
    41   19   50 1
    42   19   51 1
    43   20   27 1
    44   20   52 1
    45   22   23 1
    46   22   26 1
    47   22   29 1
    48   22   53 1
    49   23   54 1
    50   23   55 1
    51   24   33 1
    52   24   34 1
    53   24   56 1
    54   25   30 1
    55   25   57 1
    56   25   58 1
    57   26   59 1
    58   26   60 1
    59   27   32 1
    60   27   62 1
    61   27   63 1
    62   28   31 1
    63   28   37 2
    64   30   39 1
    65   30   40 1
    66   30   65 1
    67   31   32 2
    68   31   36 2
    69   32   38 1
    70   33   66 1
    71   33   67 1
    72   33   68 1
    73   34   69 1
    74   34   70 1
    75   34   71 1
    76   35   72 1
    77   35   73 1
    78   35   74 1
    79   36   41 1
    80   37   42 1
    81   37   75 1
    82   38   76 1
    83   39   77 1
    84   39   78 1
    85   39   79 1
    86   40   80 1
    87   40   81 1
    88   40   82 1
    89   41   42 2
    90   41   84 1
    91   42   85 1
