@<TRIPOS>MOLECULE
DB11363
   70    75     0     0     0
SMALL
USER_CHARGES

@<TRIPOS>ATOM
      1 O1          8.5682    0.9916    0.0377 O.3       1 <0>        -0.3772
      2 O2         -4.2421   -2.7401    0.2209 O.2       1 <0>        -0.2866
      3 N1          1.6180   -0.2385    0.0966 N.pl3     1 <0>        -0.3296
      4 N2          5.8200    0.2509    0.0353 N.3       1 <0>        -0.2950
      5 N3         -5.6222    1.5982   -0.0468 N.pl3     1 <0>        -0.3566
      6 N4        -11.5628    0.6974   -0.0309 N.1       1 <0>        -0.1909
      7 C1          4.3955    0.5565    0.1504 C.3       1 <0>         0.0134
      8 C2          3.7752   -0.2566    1.2886 C.3       1 <0>        -0.0215
      9 C3          3.6818    0.2329   -1.1636 C.3       1 <0>        -0.0215
     10 C4          2.1764    0.4791   -1.0548 C.3       1 <0>         0.0136
     11 C5          2.2713   -0.0038    1.3920 C.3       1 <0>         0.0136
     12 C6         -3.0814    1.3562   -0.0183 C.3       1 <0>         0.0315
     13 C7          0.2562   -0.5634    0.1106 C.ar      1 <0>         0.0332
     14 C8         -2.0718    0.1907    0.0554 C.ar      1 <0>        -0.0234
     15 C9         -4.4915    0.8254    0.0055 C.cat     1 <0>         0.0380
     16 C10         6.5264    0.5787    1.2814 C.3       1 <0>         0.0227
     17 C11         6.4206    0.9799   -1.0905 C.3       1 <0>         0.0227
     18 C12        -0.6887    0.4623    0.0458 C.ar      1 <0>        -0.0357
     19 C13        -2.4749   -1.1644    0.1340 C.ar      1 <0>         0.0268
     20 C14        -0.1583   -1.8873    0.1869 C.ar      1 <0>        -0.0259
     21 C15        -4.8819   -0.4922    0.0818 C.2       1 <0>         0.0513
     22 C16        -2.8669    2.1445   -1.3295 C.3       1 <0>        -0.0503
     23 C17        -2.8806    2.2933    1.1935 C.3       1 <0>        -0.0503
     24 C18        -1.5180   -2.1900    0.1990 C.ar      1 <0>        -0.0457
     25 C19        -3.9142   -1.5623    0.1513 C.2       1 <0>         0.1957
     26 C20         8.0121    0.2635    1.1332 C.3       1 <0>         0.0604
     27 C21         7.9086    0.6541   -1.1831 C.3       1 <0>         0.0604
     28 C22        -6.3081   -0.5240    0.0751 C.ar      1 <0>         0.0109
     29 C23         0.8309   -3.0050    0.2560 C.3       1 <0>        -0.0288
     30 C24        -6.7435    0.8014   -0.0064 C.ar      1 <0>         0.0486
     31 C25        -7.2782   -1.5469    0.1294 C.ar      1 <0>        -0.0507
     32 C26        -8.0977    1.1540   -0.0359 C.ar      1 <0>        -0.0204
     33 C27         1.4576   -3.3068   -1.1017 C.3       1 <0>        -0.0612
     34 C28        -8.6362   -1.2091    0.1005 C.ar      1 <0>        -0.0436
     35 C29        -9.0377    0.1218    0.0190 C.ar      1 <0>         0.0537
     36 C30       -10.4316    0.4395   -0.0084 C.1       1 <0>         0.0992
     37 H1          4.2551    1.6256    0.3670 H         1 <0>         0.0463
     38 H2          4.0220    0.8621   -1.9916 H         1 <0>         0.0295
     39 H3          3.8608   -0.8128   -1.4460 H         1 <0>         0.0295
     40 H4          3.9518   -1.3288    1.1295 H         1 <0>         0.0295
     41 H5          4.1910    0.0046    2.2661 H         1 <0>         0.0295
     42 H6          1.8567   -0.6624    2.1650 H         1 <0>         0.0464
     43 H7          2.0829    1.0288    1.7119 H         1 <0>         0.0464
     44 H8          1.9794    1.5536   -0.9527 H         1 <0>         0.0464
     45 H9          1.6980    0.1429   -1.9830 H         1 <0>         0.0464
     46 H10         6.0008    0.6814   -2.0544 H         1 <0>         0.0449
     47 H11         6.2869    2.0622   -0.9666 H         1 <0>         0.0449
     48 H12         6.3992    1.6403    1.5294 H         1 <0>         0.0449
     49 H13         6.1814   -0.0207    2.1276 H         1 <0>         0.0449
     50 H14        -0.3445    1.4931   -0.0072 H         1 <0>         0.0639
     51 H15        -3.0128    1.7532    2.1394 H         1 <0>         0.0242
     52 H16        -1.8809    2.7412    1.2086 H         1 <0>         0.0242
     53 H17        -1.8666    2.5875   -1.3865 H         1 <0>         0.0242
     54 H18        -2.9901    1.4972   -2.2067 H         1 <0>         0.0242
     55 H19        -3.5989    3.1216    1.1867 H         1 <0>         0.0242
     56 H20        -3.5843    2.9680   -1.4274 H         1 <0>         0.0242
     57 H21        -1.8305   -3.2303    0.2561 H         1 <0>         0.0628
     58 H22         8.3705    1.2417   -1.9831 H         1 <0>         0.0572
     59 H23         8.0786   -0.4057   -1.4097 H         1 <0>         0.0572
     60 H24         8.1863   -0.8094    0.9851 H         1 <0>         0.0572
     61 H25         8.5499    0.5641    2.0382 H         1 <0>         0.0572
     62 H26        -5.6354    2.6071   -0.1070 H         1 <0>         0.1656
     63 H27         0.3459   -3.9171    0.6268 H         1 <0>         0.0311
     64 H28         1.6149   -2.7846    0.9888 H         1 <0>         0.0311
     65 H29        -6.9859   -2.5909    0.1930 H         1 <0>         0.0625
     66 H30        -8.3974    2.1960   -0.0996 H         1 <0>         0.0651
     67 H31         2.0173   -2.4573   -1.4998 H         1 <0>         0.0233
     68 H32         2.1501   -4.1502   -1.0145 H         1 <0>         0.0233
     69 H33         0.6907   -3.5749   -1.8366 H         1 <0>         0.0233
     70 H34        -9.3731   -2.0086    0.1431 H         1 <0>         0.0631
@<TRIPOS>BOND
     1    1   26 1
     2    1   27 1
     3    2   25 2
     4    3   10 1
     5    3   11 1
     6    3   13 1
     7    4    7 1
     8    4   16 1
     9    4   17 1
    10    5   15 1
    11    5   30 2
    12    5   62 1
    13    6   36 3
    14    7    8 1
    15    7    9 1
    16    7   37 1
    17    8   11 1
    18    8   40 1
    19    8   41 1
    20    9   10 1
    21    9   38 1
    22    9   39 1
    23   10   44 1
    24   10   45 1
    25   11   42 1
    26   11   43 1
    27   12   14 1
    28   12   15 1
    29   12   22 1
    30   12   23 1
    31   13   18 ar
    32   13   20 ar
    33   14   18 ar
    34   14   19 ar
    35   15   21 1
    36   16   26 1
    37   16   48 1
    38   16   49 1
    39   17   27 1
    40   17   46 1
    41   17   47 1
    42   18   50 1
    43   19   24 ar
    44   19   25 1
    45   20   24 ar
    46   20   29 1
    47   21   25 1
    48   21   28 2
    49   22   53 1
    50   22   54 1
    51   22   56 1
    52   23   51 1
    53   23   52 1
    54   23   55 1
    55   24   57 1
    56   26   60 1
    57   26   61 1
    58   27   58 1
    59   27   59 1
    60   28   30 ar
    61   28   31 ar
    62   29   33 1
    63   29   63 1
    64   29   64 1
    65   30   32 ar
    66   31   34 ar
    67   31   65 1
    68   32   35 ar
    69   32   66 1
    70   33   67 1
    71   33   68 1
    72   33   69 1
    73   34   35 ar
    74   34   70 1
    75   35   36 1
