@<TRIPOS>MOLECULE
DB11672
   47    48     0     0     0
SMALL
USER_CHARGES

@<TRIPOS>ATOM
      1 O1         -7.3950    1.2761    0.6282 O.3       1 <0>        -0.4914
      2 O2          7.4691    1.2514   -0.4017 O.3       1 <0>        -0.4914
      3 O3         -6.2038    3.5757   -0.3809 O.3       1 <0>        -0.5033
      4 O4          7.3867    1.3664    2.3741 O.3       1 <0>        -0.5033
      5 O5         -2.0830   -3.7620   -1.0617 O.2       1 <0>        -0.2922
      6 O6          0.8254   -1.6106   -1.9922 O.2       1 <0>        -0.2922
      7 C1         -4.1747   -0.0236   -0.4658 C.ar      1 <0>        -0.0212
      8 C2          4.1641   -0.1255    0.2603 C.ar      1 <0>        -0.0212
      9 C3         -0.0632   -2.8426   -0.1211 C.3       1 <0>         0.0724
     10 C4         -5.4513    0.0182    0.0707 C.ar      1 <0>        -0.0092
     11 C5          5.2801    0.3140   -0.4329 C.ar      1 <0>        -0.0092
     12 C6         -6.1399    1.2310    0.1008 C.ar      1 <0>         0.1618
     13 C7          6.3703    0.8177    0.2768 C.ar      1 <0>         0.1618
     14 C8         -3.5678    1.1138   -0.9731 C.ar      1 <0>        -0.0509
     15 C9          4.1082   -0.0752    1.6438 C.ar      1 <0>        -0.0509
     16 C10        -3.4473   -1.3047   -0.4988 C.2       1 <0>        -0.0512
     17 C11         3.0126   -0.6587   -0.4889 C.2       1 <0>        -0.0512
     18 C12        -5.5422    2.3851   -0.4060 C.ar      1 <0>         0.1585
     19 C13         6.3292    0.8751    1.6700 C.ar      1 <0>         0.1585
     20 C14        -1.4791   -2.7715   -0.6579 C.2       1 <0>         0.1635
     21 C15         0.9412   -1.9446   -0.8159 C.2       1 <0>         0.1635
     22 C16        -4.2561    2.3264   -0.9431 C.ar      1 <0>        -0.0160
     23 C17         5.1981    0.4285    2.3533 C.ar      1 <0>        -0.0160
     24 C18        -2.1179   -1.4225   -0.6238 C.2       1 <0>        -0.0182
     25 C19         2.0636   -1.4479    0.0341 C.2       1 <0>        -0.0182
     26 C20        -7.9337    0.0524    1.1248 C.3       1 <0>         0.0790
     27 C21         7.4308    1.1585   -1.8245 C.3       1 <0>         0.0790
     28 H1          0.2929   -3.8737   -0.2272 H         1 <0>         0.0426
     29 H2         -0.1093   -2.6126    0.9494 H         1 <0>         0.0426
     30 H3         -5.8661   -0.9087    0.4520 H         1 <0>         0.0661
     31 H4          5.2584    0.2442   -1.5152 H         1 <0>         0.0661
     32 H5         -2.5782    1.1099   -1.4194 H         1 <0>         0.0625
     33 H6          3.2413   -0.3907    2.2155 H         1 <0>         0.0625
     34 H7         -4.0655   -2.1972   -0.4313 H         1 <0>         0.0625
     35 H8          2.9686   -0.3752   -1.5380 H         1 <0>         0.0625
     36 H9         -3.7873    3.2213   -1.3434 H         1 <0>         0.0655
     37 H10         5.1514    0.4724    3.4383 H         1 <0>         0.0655
     38 H11        -1.4492   -0.5706   -0.6352 H         1 <0>         0.0653
     39 H12         2.0703   -1.7876    1.0628 H         1 <0>         0.0653
     40 H13        -7.0768    3.4317    0.0239 H         1 <0>         0.2923
     41 H14         7.1799    1.3289    3.3237 H         1 <0>         0.2923
     42 H15        -7.3521   -0.3316    1.9698 H         1 <0>         0.0660
     43 H16        -8.0534   -0.6893    0.3278 H         1 <0>         0.0660
     44 H17        -8.9365    0.2734    1.5051 H         1 <0>         0.0660
     45 H18         6.6434    1.7900   -2.2496 H         1 <0>         0.0660
     46 H19         7.3592    0.1181   -2.1596 H         1 <0>         0.0660
     47 H20         8.3844    1.5466   -2.1979 H         1 <0>         0.0660
@<TRIPOS>BOND
     1    1   12 1
     2    1   26 1
     3    2   13 1
     4    2   27 1
     5    3   18 1
     6    3   40 1
     7    4   19 1
     8    4   41 1
     9    5   20 2
    10    6   21 2
    11    7   10 ar
    12    7   14 ar
    13    7   16 1
    14    8   11 ar
    15    8   15 ar
    16    8   17 1
    17    9   20 1
    18    9   21 1
    19    9   28 1
    20    9   29 1
    21   10   12 ar
    22   10   30 1
    23   11   13 ar
    24   11   31 1
    25   12   18 ar
    26   13   19 ar
    27   14   22 ar
    28   14   32 1
    29   15   23 ar
    30   15   33 1
    31   16   24 2
    32   16   34 1
    33   17   25 2
    34   17   35 1
    35   18   22 ar
    36   19   23 ar
    37   20   24 1
    38   21   25 1
    39   22   36 1
    40   23   37 1
    41   24   38 1
    42   25   39 1
    43   26   42 1
    44   26   43 1
    45   26   44 1
    46   27   45 1
    47   27   46 1
    48   27   47 1
