@<TRIPOS>MOLECULE
DB11703
   58    62     0     0     0
SMALL
USER_CHARGES

@<TRIPOS>ATOM
      1 O1         -4.1083    0.9850    2.2831 O.2       1 <0>        -0.2605
      2 O2          4.9018    0.5804   -2.1256 O.2       1 <0>        -0.2698
      3 N1         -4.5831    0.8110    0.0187 N.am      1 <0>        -0.2808
      4 N2         -2.6349   -2.3372    0.5130 N.pl3     1 <0>        -0.2969
      5 N3         -1.9077   -0.4118   -0.3171 N.2       1 <0>        -0.2293
      6 N4         -1.3558   -4.6353    1.3966 N.2       1 <0>        -0.2371
      7 N5          0.7584   -3.7967    0.9462 N.pl3     1 <0>        -0.3414
      8 N6          5.3441    0.4623    0.1758 N.am      1 <0>        -0.2664
      9 N7          7.3076    0.8395    1.4656 N.ar      1 <0>        -0.2401
     10 C1         -4.4122   -0.6412   -0.0967 C.3       1 <0>         0.0852
     11 C2         -5.0260   -0.9755   -1.4627 C.3       1 <0>        -0.0258
     12 C3         -4.8193    0.2983   -2.2765 C.3       1 <0>        -0.0350
     13 C4         -5.0097    1.4021   -1.2476 C.3       1 <0>         0.0163
     14 C5         -2.9731   -1.1072    0.0232 C.2       1 <0>         0.1356
     15 C6         -1.2642   -2.4292    0.4826 C.2       1 <0>         0.1135
     16 C7         -4.4672    1.4873    1.2232 C.2       1 <0>         0.2916
     17 C8         -0.8376   -1.2285   -0.0337 C.2       1 <0>         0.1002
     18 C9         -3.3886   -3.3916    0.9848 C.2       1 <0>         0.0298
     19 C10        -0.6095   -3.6420    0.9501 C.2       1 <0>         0.1424
     20 C11         0.5156   -0.8268   -0.2667 C.ar      1 <0>         0.0026
     21 C12        -2.7340   -4.4882    1.4040 C.2       1 <0>         0.0463
     22 C13        -4.7960    2.8952    1.2246 C.1       1 <0>        -0.0081
     23 C14         1.2311   -0.1701    0.7346 C.ar      1 <0>        -0.0518
     24 C15         1.1193   -1.0909   -1.4963 C.ar      1 <0>        -0.0518
     25 C16         2.5500    0.2221    0.5065 C.ar      1 <0>        -0.0490
     26 C17         2.4381   -0.6988   -1.7244 C.ar      1 <0>        -0.0490
     27 C18         3.1536   -0.0422   -0.7229 C.ar      1 <0>         0.0371
     28 C19        -5.0691    4.0644    1.2256 C.1       1 <0>        -0.0959
     29 C20         4.5289    0.3664   -0.9607 C.2       1 <0>         0.2493
     30 C21        -5.4017    5.4882    1.2269 C.3       1 <0>        -0.0021
     31 C22         6.7155    0.8091    0.2507 C.ar      1 <0>         0.1251
     32 C23         7.3674    1.0976   -0.9374 C.ar      1 <0>        -0.0215
     33 C24         8.7137    1.4389   -0.8745 C.ar      1 <0>        -0.0571
     34 C25         8.6170    1.1754    1.4873 C.ar      1 <0>         0.0297
     35 C26         9.3580    1.4808    0.3570 C.ar      1 <0>        -0.0435
     36 H1         -5.0024   -1.0961    0.7076 H         1 <0>         0.0581
     37 H2         -4.5910   -1.8564   -1.9447 H         1 <0>         0.0288
     38 H3         -6.1031   -1.1511   -1.3466 H         1 <0>         0.0288
     39 H4         -3.7961    0.3244   -2.6698 H         1 <0>         0.0281
     40 H5         -5.5108    0.3844   -3.1190 H         1 <0>         0.0281
     41 H6         -4.4248    2.2977   -1.4758 H         1 <0>         0.0465
     42 H7         -6.0653    1.6790   -1.1507 H         1 <0>         0.0465
     43 H8         -4.4672   -3.3102    1.0001 H         1 <0>         0.0829
     44 H9         -3.2902   -5.3400    1.7805 H         1 <0>         0.0845
     45 H10         0.7716    0.0507    1.6952 H         1 <0>         0.0624
     46 H11         0.5754   -1.6027   -2.2868 H         1 <0>         0.0624
     47 H12         1.3937   -3.0792    0.6190 H         1 <0>         0.1438
     48 H13         1.1793   -4.6574    1.2801 H         1 <0>         0.1438
     49 H14         3.0520    0.7641    1.3023 H         1 <0>         0.0625
     50 H15         2.8905   -0.9194   -2.6877 H         1 <0>         0.0625
     51 H16        -5.5022    5.8651    0.2045 H         1 <0>         0.0362
     52 H17        -6.3466    5.6667    1.7489 H         1 <0>         0.0362
     53 H18        -4.6219    6.0697    1.7278 H         1 <0>         0.0362
     54 H19         4.9577    0.2233    1.0841 H         1 <0>         0.1566
     55 H20         6.9382    1.0866   -1.9254 H         1 <0>         0.0652
     56 H21         9.2617    1.6721   -1.7827 H         1 <0>         0.0619
     57 H22         9.0726    1.1937    2.4718 H         1 <0>         0.0830
     58 H23        10.4069    1.7442    0.4298 H         1 <0>         0.0633
@<TRIPOS>BOND
     1    1   16 2
     2    2   29 2
     3    3   10 1
     4    3   13 1
     5    3   16 am
     6    4   14 1
     7    4   15 1
     8    4   18 2
     9    5   14 2
    10    5   17 1
    11    6   19 1
    12    6   21 2
    13    7   19 1
    14    7   47 1
    15    7   48 1
    16    8   29 am
    17    8   31 1
    18    8   54 1
    19    9   31 ar
    20    9   34 ar
    21   10   11 1
    22   10   14 1
    23   10   36 1
    24   11   12 1
    25   11   37 1
    26   11   38 1
    27   12   13 1
    28   12   39 1
    29   12   40 1
    30   13   41 1
    31   13   42 1
    32   15   17 2
    33   15   19 2
    34   16   22 1
    35   17   20 1
    36   18   21 1
    37   18   43 1
    38   20   23 ar
    39   20   24 ar
    40   21   44 1
    41   22   28 3
    42   23   25 ar
    43   23   45 1
    44   24   26 ar
    45   24   46 1
    46   25   27 ar
    47   25   49 1
    48   26   27 ar
    49   26   50 1
    50   27   29 1
    51   28   30 1
    52   30   51 1
    53   30   52 1
    54   30   53 1
    55   31   32 ar
    56   32   33 ar
    57   32   55 1
    58   33   35 ar
    59   33   56 1
    60   34   35 ar
    61   34   57 1
    62   35   58 1
