@<TRIPOS>MOLECULE
DB11753
   97   100     0     0     0
SMALL
USER_CHARGES

@<TRIPOS>ATOM
      1 O1          0.1613    0.8016    1.7260 O.3       1 <0>        -0.4608
      2 O2         -0.7546    0.2267   -1.5319 O.3       1 <0>        -0.3910
      3 O3         -4.4410    3.2762   -1.8600 O.3       1 <0>        -0.3909
      4 O4          4.3922    2.8924    0.6018 O.3       1 <0>        -0.3753
      5 O5          4.8652   -0.2834   -2.0563 O.3       1 <0>        -0.4528
      6 O6          4.7014   -1.8675   -0.1707 O.3       1 <0>        -0.4436
      7 O7          1.9860   -0.4639    2.3628 O.2       1 <0>        -0.2512
      8 O8          3.2684   -2.3244   -3.3509 O.2       1 <0>        -0.2836
      9 O9          1.0299   -2.7362    2.7402 O.3       1 <0>        -0.5057
     10 O10         0.8586   -2.8657   -3.3814 O.3       1 <0>        -0.5061
     11 O11        -1.2116   -2.9766    1.7220 O.3       1 <0>        -0.5042
     12 O12        -3.5133   -3.3697    1.6901 O.2       1 <0>        -0.2702
     13 N1         -2.9428   -3.0760   -0.6073 N.am      1 <0>        -0.2787
     14 C1         -0.0380    2.1885   -0.2972 C.3       1 <0>         0.0200
     15 C2         -1.2658    1.3446   -0.7839 C.3       1 <0>         0.0661
     16 C3          0.8902    1.2903    0.5931 C.3       1 <0>         0.1131
     17 C4         -2.3705    1.9938   -1.6671 C.3       1 <0>         0.0091
     18 C5          2.2490    1.8450    1.1166 C.3       1 <0>         0.0236
     19 C6         -3.4363    2.8537   -0.9277 C.3       1 <0>         0.0661
     20 C7         -0.4606    3.4671    0.4179 C.3       1 <0>        -0.0567
     21 C8          3.1779    2.4177    0.0134 C.3       1 <0>         0.0854
     22 C9         -4.1156    2.1898    0.2989 C.3       1 <0>         0.0009
     23 C10        -1.7687    2.7780   -2.8479 C.3       1 <0>        -0.0577
     24 C11         2.1343    2.8015    2.3179 C.3       1 <0>        -0.0564
     25 C12        -5.0185    3.1997    1.0242 C.3       1 <0>        -0.0566
     26 C13         3.5188    1.4081   -1.0554 C.2       1 <0>        -0.0208
     27 C14        -4.9514    0.9778   -0.0568 C.2       1 <0>        -0.0787
     28 C15         0.8387   -0.0707    2.5241 C.2       1 <0>         0.3042
     29 C16         4.6168    0.6416   -1.0792 C.2       1 <0>         0.0882
     30 C17        -4.6274   -0.2797    0.2815 C.2       1 <0>        -0.0649
     31 C18         4.7944   -1.6459   -1.6001 C.3       1 <0>         0.3143
     32 C19         5.2241    3.5090   -0.3665 C.3       1 <0>         0.0372
     33 C20        -0.0414   -0.4942    3.6609 C.3       1 <0>         0.0332
     34 C21         2.6173   -2.4363   -1.0452 C.ar      1 <0>         0.0788
     35 C22         3.4955   -2.1780   -2.1662 C.2       1 <0>         0.2505
     36 C23         3.4021   -2.2339    0.0748 C.ar      1 <0>         0.1435
     37 C24         1.2520   -2.7230   -0.9732 C.ar      1 <0>         0.0449
     38 C25         5.9933   -2.4112   -2.1372 C.3       1 <0>         0.0210
     39 C26        -5.4818   -1.4235    0.0226 C.2       1 <0>        -0.0542
     40 C27         2.8748   -2.3577    1.3424 C.ar      1 <0>         0.0342
     41 C28         0.6859   -2.7995    0.3231 C.ar      1 <0>         0.0714
     42 C29         1.5118   -2.6405    1.4613 C.ar      1 <0>         0.1346
     43 C30         0.4185   -2.8831   -2.0941 C.ar      1 <0>         0.1274
     44 C31        -0.7031   -2.9807    0.4606 C.ar      1 <0>         0.1494
     45 C32        -5.1451   -2.7181    0.1706 C.2       1 <0>         0.0115
     46 C33        -1.5317   -3.0664   -0.6625 C.ar      1 <0>         0.0798
     47 C34         3.7366   -2.1548    2.5427 C.3       1 <0>        -0.0327
     48 C35        -0.9564   -3.0489   -1.9367 C.ar      1 <0>         0.0053
     49 C36        -3.7413   -3.0718    0.5260 C.2       1 <0>         0.2441
     50 C37        -6.0853   -3.8620   -0.0359 C.3       1 <0>        -0.0348
     51 H1          0.5453    2.4689   -1.1829 H         1 <0>         0.0359
     52 H2         -1.7375    0.8954    0.0931 H         1 <0>         0.0600
     53 H3          1.1362    0.4117   -0.0169 H         1 <0>         0.0741
     54 H4         -2.9236    1.1715   -2.1454 H         1 <0>         0.0348
     55 H5          2.8876    1.0492    1.4928 H         1 <0>         0.0362
     56 H6         -2.9745    3.7821   -0.5867 H         1 <0>         0.0602
     57 H7         -1.0894    3.2582    1.2884 H         1 <0>         0.0234
     58 H8          0.4023    4.0468    0.7435 H         1 <0>         0.0234
     59 H9         -0.9971    4.1387   -0.2534 H         1 <0>         0.0234
     60 H10         2.6767    3.2754   -0.4530 H         1 <0>         0.0645
     61 H11        -3.3427    1.9056    1.0222 H         1 <0>         0.0365
     62 H12        -1.2799    3.6985   -2.5161 H         1 <0>         0.0234
     63 H13        -1.0280    2.1736   -3.3819 H         1 <0>         0.0234
     64 H14        -2.5418    3.0545   -3.5724 H         1 <0>         0.0234
     65 H15         1.3036    2.5657    2.9875 H         1 <0>         0.0234
     66 H16         3.0487    2.7529    2.9217 H         1 <0>         0.0234
     67 H17         2.0340    3.8429    2.0014 H         1 <0>         0.0234
     68 H18        -1.5041   -0.3590   -1.7306 H         1 <0>         0.2098
     69 H19        -5.4551    2.7554    1.9261 H         1 <0>         0.0236
     70 H20        -4.4425    4.0782    1.3350 H         1 <0>         0.0236
     71 H21        -5.8425    3.5439    0.3893 H         1 <0>         0.0236
     72 H22         2.7927    1.2935   -1.8572 H         1 <0>         0.0628
     73 H23        -4.8076    2.4836   -2.2871 H         1 <0>         0.2098
     74 H24        -5.8837    1.1636   -0.5871 H         1 <0>         0.0576
     75 H25         5.3838    0.6365   -0.3168 H         1 <0>         0.1022
     76 H26        -3.6928   -0.4561    0.8061 H         1 <0>         0.0615
     77 H27         5.8982    2.8056   -0.8588 H         1 <0>         0.0524
     78 H28         4.6567    4.0843   -1.1066 H         1 <0>         0.0524
     79 H29         5.8657    4.2181    0.1671 H         1 <0>         0.0524
     80 H30        -0.8861   -1.0858    3.3101 H         1 <0>         0.0342
     81 H31        -0.4202    0.4023    4.1629 H         1 <0>         0.0342
     82 H32         0.5348   -1.0474    4.4072 H         1 <0>         0.0342
     83 H33         6.9182   -2.0244   -1.6946 H         1 <0>         0.0309
     84 H34         5.9323   -3.4761   -1.8886 H         1 <0>         0.0309
     85 H35         6.0833   -2.3082   -3.2238 H         1 <0>         0.0309
     86 H36        -6.4983   -1.1901   -0.2902 H         1 <0>         0.0622
     87 H37         4.3389   -1.2434    2.4429 H         1 <0>         0.0280
     88 H38         4.4331   -2.9986    2.6187 H         1 <0>         0.0280
     89 H39         3.2240   -2.0972    3.5070 H         1 <0>         0.0280
     90 H40        -1.5969   -3.1284   -2.8137 H         1 <0>         0.0674
     91 H41        -3.4095   -2.9967   -1.5090 H         1 <0>         0.1552
     92 H42        -6.1838   -4.4454    0.8853 H         1 <0>         0.0279
     93 H43        -5.7167   -4.5234   -0.8267 H         1 <0>         0.0279
     94 H44        -7.0851   -3.5215   -0.3245 H         1 <0>         0.0279
     95 H45         1.6386   -3.2858    3.2622 H         1 <0>         0.2922
     96 H46         0.1155   -2.9942   -3.9950 H         1 <0>         0.2922
     97 H47        -0.6032   -3.4348    2.3240 H         1 <0>         0.2923
@<TRIPOS>BOND
     1    1   16 1
     2    1   28 1
     3    2   15 1
     4    2   68 1
     5    3   19 1
     6    3   73 1
     7    4   21 1
     8    4   32 1
     9    5   29 1
    10    5   31 1
    11    6   31 1
    12    6   36 1
    13    7   28 2
    14    8   35 2
    15    9   42 1
    16    9   95 1
    17   10   43 1
    18   10   96 1
    19   11   44 1
    20   11   97 1
    21   12   49 2
    22   13   46 1
    23   13   49 am
    24   13   91 1
    25   14   15 1
    26   14   16 1
    27   14   20 1
    28   14   51 1
    29   15   17 1
    30   15   52 1
    31   16   18 1
    32   16   53 1
    33   17   19 1
    34   17   23 1
    35   17   54 1
    36   18   21 1
    37   18   24 1
    38   18   55 1
    39   19   22 1
    40   19   56 1
    41   20   57 1
    42   20   58 1
    43   20   59 1
    44   21   26 1
    45   21   60 1
    46   22   25 1
    47   22   27 1
    48   22   61 1
    49   23   62 1
    50   23   63 1
    51   23   64 1
    52   24   65 1
    53   24   66 1
    54   24   67 1
    55   25   69 1
    56   25   70 1
    57   25   71 1
    58   26   29 2
    59   26   72 1
    60   27   30 2
    61   27   74 1
    62   28   33 1
    63   29   75 1
    64   30   39 1
    65   30   76 1
    66   31   35 1
    67   31   38 1
    68   32   77 1
    69   32   78 1
    70   32   79 1
    71   33   80 1
    72   33   81 1
    73   33   82 1
    74   34   35 1
    75   34   36 ar
    76   34   37 ar
    77   36   40 ar
    78   37   41 ar
    79   37   43 ar
    80   38   83 1
    81   38   84 1
    82   38   85 1
    83   39   45 2
    84   39   86 1
    85   40   42 ar
    86   40   47 1
    87   41   42 ar
    88   41   44 ar
    89   43   48 ar
    90   44   46 ar
    91   45   49 1
    92   45   50 1
    93   46   48 ar
    94   47   87 1
    95   47   88 1
    96   47   89 1
    97   48   90 1
    98   50   92 1
    99   50   93 1
   100   50   94 1
