@<TRIPOS>MOLECULE
DB11637
   63    67     0     0     0
SMALL
USER_CHARGES

@<TRIPOS>ATOM
      1 F1         10.5772    0.8062   -0.4561 F         1 <0>        -0.1328
      2 F2         12.1072   -0.0012    0.8791 F         1 <0>        -0.1328
      3 F3         10.6576    1.4349    1.6611 F         1 <0>        -0.1328
      4 O1         -7.2207    0.3252    1.5734 O.3       1 <0>        -0.4519
      5 O2          4.9928   -1.0286   -1.1846 O.3       1 <0>        -0.4887
      6 O3         -4.2080    1.8228    0.1310 O.3       1 <0>        -0.4880
      7 O4         -9.5738   -4.1825   -1.0473 O.3       1 <0>        -0.5746
      8 O5         -9.9838   -3.9527    1.1000 O.2       1 <0>         0.0432
      9 O6          9.9772   -0.6916    1.1649 O.3       1 <0>        -0.4057
     10 N1          1.1200    0.2968   -0.3527 N.pl3     1 <0>        -0.3296
     11 N2         -7.4063   -0.7224   -0.4072 N.pl3     1 <0>        -0.2905
     12 N3         -8.4970   -1.6910    1.2523 N.2       1 <0>        -0.1282
     13 N4         -9.4335   -3.5518    0.0370 N.pl3     1 <0>         0.1022
     14 C1         -6.4372    1.1062    0.6048 C.3       1 <0>         0.1623
     15 C2          3.9217   -0.3796   -0.5098 C.3       1 <0>         0.1031
     16 C3          2.8706   -1.4204   -0.1409 C.3       1 <0>         0.0000
     17 C4          3.3075    0.6825   -1.4165 C.3       1 <0>         0.0000
     18 C5          1.6424   -0.7782    0.4994 C.3       1 <0>         0.0155
     19 C6          2.0829    1.3258   -0.7724 C.3       1 <0>         0.0155
     20 C7         -6.5647    0.3854   -0.7709 C.3       1 <0>         0.0706
     21 C8         -4.9890    1.1380    1.0920 C.3       1 <0>         0.1306
     22 C9         -7.0248    2.5156    0.5574 C.3       1 <0>        -0.0198
     23 C10        -0.2212    0.6805   -0.2310 C.ar      1 <0>         0.0299
     24 C11        -7.7309   -0.6946    0.8993 C.cat     1 <0>         0.3046
     25 C12        -7.9735   -1.7875   -0.9900 C.2       1 <0>         0.1076
     26 C13        -0.9075    1.1784   -1.3386 C.ar      1 <0>        -0.0372
     27 C14        -0.8707    0.5651    0.9980 C.ar      1 <0>        -0.0372
     28 C15        -2.8929    1.4457    0.0118 C.ar      1 <0>         0.1208
     29 C16        -8.6544   -2.3871    0.0611 C.2       1 <0>         0.3878
     30 C17        -2.2433    1.5610   -1.2173 C.ar      1 <0>        -0.0182
     31 C18        -2.2067    0.9477    1.1194 C.ar      1 <0>        -0.0182
     32 C19         6.2299   -0.9451   -0.6019 C.ar      1 <0>         0.1211
     33 C20         6.8189    0.3018   -0.3913 C.ar      1 <0>        -0.0165
     34 C21         6.9004   -2.1067   -0.2188 C.ar      1 <0>        -0.0165
     35 C22         8.0782    0.3870    0.2023 C.ar      1 <0>        -0.0162
     36 C23         8.1597   -2.0216    0.3750 C.ar      1 <0>        -0.0162
     37 C24         8.7485   -0.7748    0.5855 C.ar      1 <0>         0.1302
     38 C25        10.8178    0.4005    0.8089 C.3       1 <0>         0.5752
     39 H1          4.2641    0.0994    0.4188 H         1 <0>         0.0734
     40 H2          2.5731   -1.9745   -1.0413 H         1 <0>         0.0316
     41 H3          3.3020   -2.1658    0.5382 H         1 <0>         0.0316
     42 H4          4.0505    1.4509   -1.6585 H         1 <0>         0.0316
     43 H5          3.0274    0.2266   -2.3756 H         1 <0>         0.0316
     44 H6          0.8900   -1.5636    0.6434 H         1 <0>         0.0465
     45 H7          1.9079   -0.3776    1.4858 H         1 <0>         0.0465
     46 H8          2.3842    1.9155    0.1026 H         1 <0>         0.0465
     47 H9          1.6468    2.0251   -1.4950 H         1 <0>         0.0465
     48 H10        -7.0771    0.9796   -1.5325 H         1 <0>         0.0534
     49 H11        -5.6227   -0.0118   -1.1590 H         1 <0>         0.0534
     50 H12        -4.9215    1.6470    2.0617 H         1 <0>         0.0737
     51 H13        -4.6578    0.1001    1.2373 H         1 <0>         0.0737
     52 H14        -8.0874    2.4840    0.2903 H         1 <0>         0.0270
     53 H15        -6.5073    3.1508   -0.1686 H         1 <0>         0.0270
     54 H16        -6.9701    2.9939    1.5417 H         1 <0>         0.0270
     55 H17        -7.8651   -2.0338   -2.0369 H         1 <0>         0.0898
     56 H18        -0.4233    1.2622   -2.3083 H         1 <0>         0.0637
     57 H19        -0.3609    0.2021    1.8859 H         1 <0>         0.0637
     58 H20        -2.7744    1.9448   -2.0840 H         1 <0>         0.0655
     59 H21        -2.6667    0.8718    2.1002 H         1 <0>         0.0655
     60 H22         6.3108    1.2158   -0.6850 H         1 <0>         0.0655
     61 H23         6.4459   -3.0805   -0.3797 H         1 <0>         0.0655
     62 H24         8.4840    1.3782    0.3810 H         1 <0>         0.0655
     63 H25         8.6770   -2.9299    0.6715 H         1 <0>         0.0655
@<TRIPOS>BOND
     1    1   38 1
     2    2   38 1
     3    3   38 1
     4    4   14 1
     5    4   24 1
     6    5   15 1
     7    5   32 1
     8    6   21 1
     9    6   28 1
    10    7   13 1
    11    8   13 2
    12    9   37 1
    13    9   38 1
    14   10   18 1
    15   10   19 1
    16   10   23 1
    17   11   20 1
    18   11   24 1
    19   11   25 2
    20   12   24 1
    21   12   29 2
    22   13   29 1
    23   14   20 1
    24   14   21 1
    25   14   22 1
    26   15   16 1
    27   15   17 1
    28   15   39 1
    29   16   18 1
    30   16   40 1
    31   16   41 1
    32   17   19 1
    33   17   42 1
    34   17   43 1
    35   18   44 1
    36   18   45 1
    37   19   46 1
    38   19   47 1
    39   20   48 1
    40   20   49 1
    41   21   50 1
    42   21   51 1
    43   22   52 1
    44   22   53 1
    45   22   54 1
    46   23   26 ar
    47   23   27 ar
    48   25   29 1
    49   25   55 1
    50   26   30 ar
    51   26   56 1
    52   27   31 ar
    53   27   57 1
    54   28   30 ar
    55   28   31 ar
    56   30   58 1
    57   31   59 1
    58   32   33 ar
    59   32   34 ar
    60   33   35 ar
    61   33   60 1
    62   34   36 ar
    63   34   61 1
    64   35   37 ar
    65   35   62 1
    66   36   37 ar
    67   36   63 1
