@<TRIPOS>MOLECULE
DB11853
   71    75     0     0     0
SMALL
USER_CHARGES

@<TRIPOS>ATOM
      1 S1         -0.1257    1.5648    1.0613 S.3       1 <0>        -0.0698
      2 F1          0.9604    5.1894    1.6810 F         1 <0>        -0.2050
      3 F2          4.3117    2.6431   -0.5150 F         1 <0>        -0.2050
      4 O1          2.4604   -2.2108   -0.6155 O.2       1 <0>        -0.2664
      5 O2          4.8691    1.3585    1.3094 O.2       1 <0>        -0.2458
      6 O3          8.4897   -2.9917   -0.6669 O.3       1 <0>        -0.4787
      7 O4         -7.0406   -0.1074   -1.9828 O.2       1 <0>        -0.2504
      8 O5         -9.6641   -0.0540   -1.4803 O.3       1 <0>        -0.2819
      9 N1          2.5709    1.5372    1.1300 N.am      1 <0>        -0.2824
     10 N2          3.7239   -0.4467    0.3256 N.am      1 <0>        -0.2099
     11 N3         -1.5331   -2.6588    0.2701 N.3       1 <0>        -0.3041
     12 N4          6.0780   -0.4010   -0.1995 N.ar      1 <0>        -0.1274
     13 N5         -6.5503    0.1601    0.3002 N.am      1 <0>        -0.2679
     14 N6          7.2535   -1.0393   -0.4445 N.ar      1 <0>        -0.1096
     15 N7         -8.7308    0.0709   -0.4348 N.am      1 <0>        -0.1785
     16 C1          1.3264   -0.3891    0.2635 C.2       1 <0>         0.0759
     17 C2         -0.0277   -0.7912    0.0540 C.2       1 <0>        -0.0042
     18 C3          1.4007    0.8656    0.8033 C.2       1 <0>         0.0977
     19 C4         -0.9225    0.1798    0.4487 C.2       1 <0>         0.0265
     20 C5         -0.4379   -2.0988   -0.5202 C.3       1 <0>         0.0253
     21 C6          2.5292   -1.1274   -0.0416 C.2       1 <0>         0.2708
     22 C7          2.5877    2.8813    1.7097 C.3       1 <0>         0.0590
     23 C8          3.8014    0.8597    0.9317 C.2       1 <0>         0.3388
     24 C9         -2.3670    0.1756    0.4109 C.ar      1 <0>        -0.0108
     25 C10         2.6347    3.8918    0.6093 C.ar      1 <0>         0.0426
     26 C11         4.9749   -1.1324    0.0661 C.ar      1 <0>         0.1667
     27 C12        -3.0967    0.3148    1.5915 C.ar      1 <0>        -0.0518
     28 C13        -3.0317    0.0314   -0.8070 C.ar      1 <0>        -0.0518
     29 C14        -1.0166   -3.2930    1.4825 C.3       1 <0>        -0.0127
     30 C15        -2.2974   -3.6204   -0.5237 C.3       1 <0>        -0.0127
     31 C16         1.8037    5.0112    0.6547 C.ar      1 <0>         0.1310
     32 C17         3.5093    3.7154   -0.4628 C.ar      1 <0>         0.1310
     33 C18        -4.4909    0.3099    1.5543 C.ar      1 <0>        -0.0398
     34 C19        -4.4259    0.0263   -0.8442 C.ar      1 <0>        -0.0398
     35 C20        -5.1557    0.1657    0.3365 C.ar      1 <0>         0.0349
     36 C21         4.9803   -2.5123    0.1019 C.ar      1 <0>        -0.0118
     37 C22         1.8473    5.9541   -0.3723 C.ar      1 <0>        -0.0259
     38 C23         3.5529    4.6585   -1.4898 C.ar      1 <0>        -0.0259
     39 C24         2.7219    5.7777   -1.4445 C.ar      1 <0>        -0.0563
     40 C25         6.1764   -3.1620   -0.1474 C.ar      1 <0>         0.0050
     41 C26         7.2878   -2.3886   -0.4160 C.ar      1 <0>         0.2342
     42 C27        -7.3991    0.0271   -0.8150 C.2       1 <0>         0.3268
     43 C28         9.5946   -2.1352   -0.9363 C.3       1 <0>         0.0805
     44 C29       -10.9706    0.0106   -0.9252 C.3       1 <0>         0.0622
     45 H1         -0.7674   -1.8999   -1.5497 H         1 <0>         0.0476
     46 H2          0.3580   -2.8387   -0.6061 H         1 <0>         0.0476
     47 H3          3.4855    3.0075    2.3270 H         1 <0>         0.0545
     48 H4          1.7416    3.0204    2.3900 H         1 <0>         0.0545
     49 H5         -2.6013    0.4169    2.5541 H         1 <0>         0.0624
     50 H6         -2.4813   -0.0681   -1.7396 H         1 <0>         0.0624
     51 H7         -0.4848   -2.5754    2.1170 H         1 <0>         0.0391
     52 H8         -1.8431   -3.6816    2.0885 H         1 <0>         0.0391
     53 H9         -0.3380   -4.1252    1.2610 H         1 <0>         0.0391
     54 H10        -2.7336   -3.1381   -1.4055 H         1 <0>         0.0391
     55 H11        -3.1358   -4.0185    0.0589 H         1 <0>         0.0391
     56 H12        -1.6806   -4.4617   -0.8600 H         1 <0>         0.0391
     57 H13        -5.0470    0.4165    2.4823 H         1 <0>         0.0636
     58 H14        -4.8683   -0.0881   -1.8237 H         1 <0>         0.0636
     59 H15         4.1477   -3.1302    0.4131 H         1 <0>         0.0656
     60 H16         1.2001    6.8255   -0.3368 H         1 <0>         0.0646
     61 H17         4.2338    4.5207   -2.3245 H         1 <0>         0.0646
     62 H18         2.7556    6.5119   -2.2440 H         1 <0>         0.0619
     63 H19         6.2380   -4.2442   -0.1084 H         1 <0>         0.0672
     64 H20        -7.0157    0.2653    1.1985 H         1 <0>         0.1564
     65 H21        -9.0694    0.1808    0.5144 H         1 <0>         0.1841
     66 H22        10.4720   -2.7638   -1.1147 H         1 <0>         0.0660
     67 H23         9.8093   -1.4905   -0.0776 H         1 <0>         0.0660
     68 H24         9.4174   -1.5385   -1.8373 H         1 <0>         0.0660
     69 H25       -11.1293   -0.8108   -0.2190 H         1 <0>         0.0547
     70 H26       -11.1307    0.9739   -0.4303 H         1 <0>         0.0547
     71 H27       -11.6947   -0.0862   -1.7388 H         1 <0>         0.0547
@<TRIPOS>BOND
     1    1   18 1
     2    1   19 1
     3    2   31 1
     4    3   32 1
     5    4   21 2
     6    5   23 2
     7    6   41 1
     8    6   43 1
     9    7   42 2
    10    8   15 1
    11    8   44 1
    12    9   18 1
    13    9   22 1
    14    9   23 am
    15   10   21 am
    16   10   23 am
    17   10   26 1
    18   11   20 1
    19   11   29 1
    20   11   30 1
    21   12   14 ar
    22   12   26 ar
    23   13   35 1
    24   13   42 am
    25   13   64 1
    26   14   41 ar
    27   15   42 am
    28   15   65 1
    29   16   17 1
    30   16   18 2
    31   16   21 1
    32   17   19 2
    33   17   20 1
    34   19   24 1
    35   20   45 1
    36   20   46 1
    37   22   25 1
    38   22   47 1
    39   22   48 1
    40   24   27 ar
    41   24   28 ar
    42   25   31 ar
    43   25   32 ar
    44   26   36 ar
    45   27   33 ar
    46   27   49 1
    47   28   34 ar
    48   28   50 1
    49   29   51 1
    50   29   52 1
    51   29   53 1
    52   30   54 1
    53   30   55 1
    54   30   56 1
    55   31   37 ar
    56   32   38 ar
    57   33   35 ar
    58   33   57 1
    59   34   35 ar
    60   34   58 1
    61   36   40 ar
    62   36   59 1
    63   37   39 ar
    64   37   60 1
    65   38   39 ar
    66   38   61 1
    67   39   62 1
    68   40   41 ar
    69   40   63 1
    70   43   66 1
    71   43   67 1
    72   43   68 1
    73   44   69 1
    74   44   70 1
    75   44   71 1
