@<TRIPOS>MOLECULE
DB11091
    4     3     0     0     0
SMALL
USER_CHARGES

@<TRIPOS>ATOM
      1 O1         -0.6311   -0.3299    0.3563 O.3       1 <0>        -0.2528
      2 O2          0.6311   -0.3300   -0.3562 O.3       1 <0>        -0.2528
      3 H1         -1.0647    0.3299   -0.2112 H         1 <0>         0.2528
      4 H2          1.0647    0.3300    0.2112 H         1 <0>         0.2528
@<TRIPOS>BOND
     1    1    2 1
     2    1    3 1
     3    2    4 1
