@<TRIPOS>MOLECULE
DB11387
    5     4     0     0     0
SMALL
USER_CHARGES

@<TRIPOS>ATOM
      1 Cl1        -0.0510    1.6808    0.4417 Cl        1 <0>        -0.0870
      2 Cl2         1.4812   -0.7963    0.4416 Cl        1 <0>        -0.0870
      3 Cl3        -1.4303   -0.8846    0.4415 Cl        1 <0>        -0.0870
      4 C1          0.0001   -0.0000   -0.1159 C.3       1 <0>         0.1805
      5 H1          0.0001    0.0001   -1.2089 H         1 <0>         0.0806
@<TRIPOS>BOND
     1    1    4 1
     2    2    4 1
     3    3    4 1
     4    4    5 1
