@<TRIPOS>MOLECULE
DB11942
   42    44     0     0     0
SMALL
USER_CHARGES

@<TRIPOS>ATOM
      1 F1          5.3902   -2.4013   -0.2375 F         1 <0>        -0.1659
      2 F2          5.0821   -1.2358    1.5655 F         1 <0>        -0.1659
      3 F3          4.1239   -3.1758    1.3514 F         1 <0>        -0.1659
      4 F4          1.2339    2.0924   -2.5574 F         1 <0>        -0.1659
      5 F5          2.9365    2.6759   -1.3375 F         1 <0>        -0.1659
      6 F6          3.2459    1.5067   -3.1377 F         1 <0>        -0.1659
      7 O1         -3.2941    0.6851   -2.0405 O.2       1 <0>        -0.2693
      8 N1         -2.6605   -2.1266   -0.1658 N.pl3     1 <0>        -0.2267
      9 N2         -1.6188   -1.3097   -0.3837 N.2       1 <0>        -0.1454
     10 N3         -0.6667   -3.2121    0.1157 N.2       1 <0>        -0.2144
     11 N4         -3.3670    1.1997    0.2230 N.am      1 <0>        -0.2317
     12 N5         -2.5675    2.2959    0.0673 N.pl3     1 <0>        -0.2470
     13 N6         -0.4374    3.2938    0.4049 N.ar      1 <0>        -0.2360
     14 N7          0.0317    1.4550    2.4701 N.ar      1 <0>        -0.2583
     15 C1          0.8608   -1.3699   -0.3749 C.ar      1 <0>         0.0219
     16 C2          3.2391   -1.3944    0.0489 C.ar      1 <0>         0.0560
     17 C3          2.2652    0.3808   -1.2690 C.ar      1 <0>         0.0560
     18 C4          1.0043   -0.1945   -1.1123 C.ar      1 <0>        -0.0393
     19 C5          1.9783   -1.9698    0.2056 C.ar      1 <0>        -0.0393
     20 C6          3.3827   -0.2191   -0.6884 C.ar      1 <0>        -0.0384
     21 C7         -0.4375   -1.9623   -0.2142 C.2       1 <0>         0.1817
     22 C8          4.4348   -2.0362    0.6678 C.3       1 <0>         0.4175
     23 C9          2.4197    1.6370   -2.0579 C.3       1 <0>         0.4175
     24 C10        -2.0311   -3.2652    0.1328 C.cat     1 <0>         0.1199
     25 C11        -4.0113   -1.8790   -0.2255 C.2       1 <0>         0.0358
     26 C12        -4.5544   -0.6991   -0.5592 C.2       1 <0>         0.0198
     27 C13        -3.6751    0.4550   -0.8973 C.2       1 <0>         0.2544
     28 C14        -1.3472    2.3613    0.7503 C.ar      1 <0>         0.1531
     29 C15        -1.1167    1.4581    1.7647 C.ar      1 <0>         0.0687
     30 C16         0.7110    3.2907    1.1102 C.ar      1 <0>         0.0478
     31 C17         0.9415    2.3875    2.1244 C.ar      1 <0>         0.0458
     32 H1          0.1389    0.2768   -1.5724 H         1 <0>         0.0630
     33 H2          1.8696   -2.8844    0.7840 H         1 <0>         0.0630
     34 H3          4.3658    0.2296   -0.8107 H         1 <0>         0.0629
     35 H4         -2.5586   -4.1801    0.3754 H         1 <0>         0.1048
     36 H5         -4.6608   -2.7158    0.0141 H         1 <0>         0.0832
     37 H6         -5.6263   -0.5472   -0.5927 H         1 <0>         0.0685
     38 H7         -3.7547    1.0418    1.1473 H         1 <0>         0.1731
     39 H8         -2.7603    2.9358   -0.6917 H         1 <0>         0.1716
     40 H9         -1.8184    0.6965    2.0818 H         1 <0>         0.0865
     41 H10         1.4433    4.0383    0.8319 H         1 <0>         0.0846
     42 H11         1.8654    2.3843    2.6893 H         1 <0>         0.0845
@<TRIPOS>BOND
     1    1   22 1
     2    2   22 1
     3    3   22 1
     4    4   23 1
     5    5   23 1
     6    6   23 1
     7    7   27 2
     8    8    9 1
     9    8   24 2
    10    8   25 1
    11    9   21 1
    12   10   21 2
    13   10   24 1
    14   11   12 1
    15   11   27 am
    16   11   38 1
    17   12   28 1
    18   12   39 1
    19   13   28 ar
    20   13   30 ar
    21   14   29 ar
    22   14   31 ar
    23   15   18 ar
    24   15   19 ar
    25   15   21 1
    26   16   19 ar
    27   16   20 ar
    28   16   22 1
    29   17   18 ar
    30   17   20 ar
    31   17   23 1
    32   18   32 1
    33   19   33 1
    34   20   34 1
    35   24   35 1
    36   25   26 2
    37   25   36 1
    38   26   27 1
    39   26   37 1
    40   28   29 ar
    41   29   40 1
    42   30   31 ar
    43   30   41 1
    44   31   42 1
