@<TRIPOS>MOLECULE
DB11386
   15    14     0     0     0
SMALL
USER_CHARGES

@<TRIPOS>ATOM
      1 Cl1         2.3198    1.4770    0.7043 Cl        1 <0>        -0.0803
      2 Cl2         1.9845   -0.0798   -1.7243 Cl        1 <0>        -0.0803
      3 Cl3         2.3292   -1.4129    0.8323 Cl        1 <0>        -0.0803
      4 O1         -0.2614    0.0176    1.6493 O.3       1 <0>        -0.3849
      5 C1          0.0058   -0.0007    0.2383 C.3       1 <0>         0.1068
      6 C2          1.5501   -0.0036    0.0194 C.3       1 <0>         0.2182
      7 C3         -0.6956   -1.2470   -0.3309 C.3       1 <0>        -0.0323
      8 C4         -0.6874    1.2445   -0.3399 C.3       1 <0>        -0.0323
      9 H1         -1.7690   -1.2253   -0.1063 H         1 <0>         0.0258
     10 H2         -0.5844   -1.3268   -1.4163 H         1 <0>         0.0258
     11 H3         -0.3186   -2.1667    0.1285 H         1 <0>         0.0258
     12 H4         -0.3402    2.1648    0.1411 H         1 <0>         0.0258
     13 H5         -1.7680    1.2089   -0.1537 H         1 <0>         0.0258
     14 H6         -0.5394    1.3356   -1.4200 H         1 <0>         0.0258
     15 H7         -1.2254    0.0144    1.7782 H         1 <0>         0.2103
@<TRIPOS>BOND
     1    1    6 1
     2    2    6 1
     3    3    6 1
     4    4    5 1
     5    4   15 1
     6    5    6 1
     7    5    7 1
     8    5    8 1
     9    7    9 1
    10    7   10 1
    11    7   11 1
    12    8   12 1
    13    8   13 1
    14    8   14 1
