@<TRIPOS>MOLECULE
DB11323
   23    23     0     0     0
SMALL
USER_CHARGES

@<TRIPOS>ATOM
      1 O1         -1.3534    0.1149    0.1271 O.3       1 <0>        -0.4588
      2 O2          2.0938    2.3434    0.0201 O.3       1 <0>        -0.5059
      3 O3         -3.6319   -1.4927   -0.1649 O.3       1 <0>        -0.3917
      4 O4         -0.4505    1.9755   -0.8624 O.2       1 <0>        -0.2448
      5 C1          0.9886    0.2236   -0.1778 C.ar      1 <0>         0.1003
      6 C2         -2.6586    0.6887   -0.0069 C.3       1 <0>         0.1158
      7 C3          2.1462    0.9815   -0.0006 C.ar      1 <0>         0.1308
      8 C4          1.0630   -1.1691   -0.1972 C.ar      1 <0>        -0.0442
      9 C5         -0.3073    0.8664   -0.3461 C.2       1 <0>         0.3428
     10 C6         -3.6829   -0.2727    0.5645 C.3       1 <0>         0.0784
     11 C7          3.3781    0.3467    0.1571 C.ar      1 <0>        -0.0194
     12 C8          2.2950   -1.8040   -0.0395 C.ar      1 <0>        -0.0608
     13 C9          3.4525   -1.0459    0.1374 C.ar      1 <0>        -0.0583
     14 H1         -2.6974    1.6396    0.5354 H         1 <0>         0.0721
     15 H2         -2.8573    0.8606   -1.0710 H         1 <0>         0.0721
     16 H3          0.1799   -1.7853   -0.3450 H         1 <0>         0.0627
     17 H4         -4.6953    0.1366    0.5020 H         1 <0>         0.0591
     18 H5         -3.4558   -0.5069    1.6087 H         1 <0>         0.0591
     19 H6          4.2881    0.9245    0.2956 H         1 <0>         0.0654
     20 H7          2.3538   -2.8883   -0.0574 H         1 <0>         0.0618
     21 H8          4.4119   -1.5404    0.2592 H         1 <0>         0.0619
     22 H9          2.9915    2.6937    0.1523 H         1 <0>         0.2922
     23 H10        -3.8519   -1.2904   -1.0904 H         1 <0>         0.2095
@<TRIPOS>BOND
     1    1    6 1
     2    1    9 1
     3    2    7 1
     4    2   22 1
     5    3   10 1
     6    3   23 1
     7    4    9 2
     8    5    7 ar
     9    5    8 ar
    10    5    9 1
    11    6   10 1
    12    6   14 1
    13    6   15 1
    14    7   11 ar
    15    8   12 ar
    16    8   16 1
    17   10   17 1
    18   10   18 1
    19   11   13 ar
    20   11   19 1
    21   12   13 ar
    22   12   20 1
    23   13   21 1
