@<TRIPOS>MOLECULE
DB11732
   45    47     0     0     0
SMALL
USER_CHARGES

@<TRIPOS>ATOM
      1 F1         -2.6559   -1.5567    0.9931 F         1 <0>        -0.2045
      2 F2         -6.3353    0.6949   -0.9956 F         1 <0>        -0.2045
      3 F3         -6.5410   -3.9675   -0.2209 F         1 <0>        -0.2053
      4 O1          3.0473    2.9821   -0.0259 O.2       1 <0>        -0.2901
      5 O2         -4.4009    1.8870    0.2289 O.2       1 <0>        -0.2696
      6 N1          4.4955   -1.4566    0.2007 N.3       1 <0>        -0.3053
      7 N2         -0.1009    1.4524   -0.0387 N.ar      1 <0>        -0.2289
      8 N3         -2.3581    0.7487   -0.0044 N.am      1 <0>        -0.2662
      9 C1          2.5460    0.6726   -0.2628 C.3       1 <0>         0.0260
     10 C2          2.7199    0.0109    1.1032 C.3       1 <0>        -0.0302
     11 C3          3.8319    0.5536   -1.0786 C.3       1 <0>        -0.0302
     12 C4          3.2401   -1.4208    0.9639 C.3       1 <0>        -0.0008
     13 C5          4.3139   -0.8967   -1.1456 C.3       1 <0>        -0.0008
     14 C6          2.1802    2.1129   -0.0798 C.2       1 <0>         0.1844
     15 C7          5.0068   -2.8249    0.1211 C.3       1 <0>        -0.0128
     16 C8          0.7421    2.4861    0.0368 C.ar      1 <0>         0.1085
     17 C9          0.4125    3.8022    0.2038 C.ar      1 <0>        -0.0327
     18 C10        -1.4095    1.7758    0.0645 C.ar      1 <0>         0.1259
     19 C11        -0.9430    4.0953    0.3060 C.ar      1 <0>        -0.0564
     20 C12        -1.8778    3.0685    0.2362 C.ar      1 <0>        -0.0215
     21 C13        -3.7495    0.8588    0.0786 C.2       1 <0>         0.2549
     22 C14        -4.4928   -0.4261   -0.0009 C.ar      1 <0>         0.1074
     23 C15        -3.8897   -1.5739    0.4690 C.ar      1 <0>         0.1410
     24 C16        -5.7612   -0.4287   -0.5424 C.ar      1 <0>         0.1410
     25 C17        -4.5870   -2.7796    0.3941 C.ar      1 <0>         0.0097
     26 C18        -6.4584   -1.6343   -0.6173 C.ar      1 <0>         0.0097
     27 C19        -5.8714   -2.8099   -0.1490 C.ar      1 <0>         0.1289
     28 H1          1.7631    0.1527   -0.8279 H         1 <0>         0.0382
     29 H2          1.7665   -0.0014    1.6452 H         1 <0>         0.0284
     30 H3          3.4163    0.5945    1.7206 H         1 <0>         0.0284
     31 H4          4.6307    1.1675   -0.6412 H         1 <0>         0.0284
     32 H5          3.6696    0.9351   -2.0943 H         1 <0>         0.0284
     33 H6          3.4066   -1.8225    1.9709 H         1 <0>         0.0427
     34 H7          2.4739   -2.0459    0.4865 H         1 <0>         0.0427
     35 H8          3.5995   -1.4959   -1.7257 H         1 <0>         0.0427
     36 H9          5.2677   -0.9145   -1.6869 H         1 <0>         0.0427
     37 H10         5.1898   -3.2262    1.1240 H         1 <0>         0.0391
     38 H11         5.9677   -2.8464   -0.4049 H         1 <0>         0.0391
     39 H12         4.3138   -3.4966   -0.3984 H         1 <0>         0.0391
     40 H13         1.1440    4.5997    0.2576 H         1 <0>         0.0640
     41 H14        -1.2686    5.1228    0.4399 H         1 <0>         0.0619
     42 H15        -2.9070    3.3746    0.3235 H         1 <0>         0.0652
     43 H16        -1.9489   -0.1710   -0.1456 H         1 <0>         0.1566
     44 H17        -4.1300   -3.6947    0.7586 H         1 <0>         0.0675
     45 H18        -7.4584   -1.6581   -1.0400 H         1 <0>         0.0675
@<TRIPOS>BOND
     1    1   23 1
     2    2   24 1
     3    3   27 1
     4    4   14 2
     5    5   21 2
     6    6   12 1
     7    6   13 1
     8    6   15 1
     9    7   16 ar
    10    7   18 ar
    11    8   18 1
    12    8   21 am
    13    8   43 1
    14    9   10 1
    15    9   11 1
    16    9   14 1
    17    9   28 1
    18   10   12 1
    19   10   29 1
    20   10   30 1
    21   11   13 1
    22   11   31 1
    23   11   32 1
    24   12   33 1
    25   12   34 1
    26   13   35 1
    27   13   36 1
    28   14   16 1
    29   15   37 1
    30   15   38 1
    31   15   39 1
    32   16   17 ar
    33   17   19 ar
    34   17   40 1
    35   18   20 ar
    36   19   20 ar
    37   19   41 1
    38   20   42 1
    39   21   22 1
    40   22   23 ar
    41   22   24 ar
    42   23   25 ar
    43   24   26 ar
    44   25   27 ar
    45   25   44 1
    46   26   27 ar
    47   26   45 1
