@<TRIPOS>MOLECULE
DB11730
   62    66     0     0     0
SMALL
USER_CHARGES

@<TRIPOS>ATOM
      1 O1          6.4852   -0.3087   -1.6126 O.2       1 <0>        -0.2684
      2 N1          3.7643    0.0785   -0.4006 N.pl3     1 <0>        -0.3180
      3 N2          1.4257    0.6100   -0.1500 N.ar      1 <0>        -0.1962
      4 N3         -6.3368   -0.2517    0.0627 N.pl3     1 <0>        -0.3263
      5 N4          6.6738   -1.9164    0.0737 N.am      1 <0>        -0.3024
      6 N5         -0.0291   -1.3066   -0.5217 N.ar      1 <0>        -0.2219
      7 N6         -9.1022   -0.9250   -0.1575 N.3       1 <0>        -0.3130
      8 N7         -0.8914    0.7929    0.0165 N.pl3     1 <0>        -0.2684
      9 N8         -2.6967   -0.7397   -0.2469 N.ar      1 <0>        -0.2383
     10 C1          4.3262    1.4524   -0.1114 C.3       1 <0>         0.0366
     11 C2          3.8346    2.5132   -1.1123 C.3       1 <0>        -0.0320
     12 C3          3.9781    2.0050    1.2864 C.3       1 <0>        -0.0320
     13 C4          3.6911    3.7841   -0.2887 C.3       1 <0>        -0.0511
     14 C5          3.1669    3.2722    1.0412 C.3       1 <0>        -0.0511
     15 C6          4.5051   -1.0359   -0.7001 C.cat     1 <0>         0.1070
     16 C7          2.4331   -0.2433   -0.4041 C.ar      1 <0>         0.1466
     17 C8          2.3192   -1.5931   -0.7141 C.ar      1 <0>         0.0378
     18 C9          3.6357   -2.0872   -0.8995 C.2       1 <0>        -0.0209
     19 C10         5.9341   -1.0619   -0.7830 C.2       1 <0>         0.2627
     20 C11         1.0277   -2.1150   -0.7675 C.ar      1 <0>         0.0419
     21 C12         0.2318   -0.0118   -0.2322 C.ar      1 <0>         0.2224
     22 C13        -6.7983   -1.5926    0.4379 C.3       1 <0>         0.0248
     23 C14        -7.2004    0.4802   -0.8737 C.3       1 <0>         0.0248
     24 C15        -8.2660   -1.5545    0.8631 C.3       1 <0>         0.0117
     25 C16        -8.6531    0.4451   -0.4006 C.3       1 <0>         0.0117
     26 C17        -4.9669    0.0343    0.0565 C.ar      1 <0>         0.0482
     27 C18         8.1285   -1.9494    0.0182 C.3       1 <0>         0.0032
     28 C19         6.0575   -2.8082    1.0538 C.3       1 <0>         0.0032
     29 C20        -2.2814    0.5176    0.0263 C.ar      1 <0>         0.1251
     30 C21        -4.5011    1.3151    0.3326 C.ar      1 <0>        -0.0359
     31 C22        -4.0322   -0.9489   -0.2247 C.ar      1 <0>         0.0507
     32 C23        -3.1342    1.5696    0.3192 C.ar      1 <0>        -0.0198
     33 H1          5.4144    1.3639   -0.1755 H         1 <0>         0.0528
     34 H2          2.8732    2.2544   -1.5677 H         1 <0>         0.0285
     35 H3          4.5481    2.6467   -1.9325 H         1 <0>         0.0285
     36 H4          4.9068    2.2666    1.8089 H         1 <0>         0.0285
     37 H5          3.4393    1.2944    1.9210 H         1 <0>         0.0285
     38 H6          3.0145    4.5063   -0.7539 H         1 <0>         0.0266
     39 H7          4.6681    4.2634   -0.1552 H         1 <0>         0.0266
     40 H8          3.2920    4.0030    1.8454 H         1 <0>         0.0266
     41 H9          2.0999    3.0353    0.9640 H         1 <0>         0.0266
     42 H10         3.9146   -3.1006   -1.1561 H         1 <0>         0.0647
     43 H11         0.8058   -3.1495   -0.9977 H         1 <0>         0.0838
     44 H12        -6.6775   -2.2783   -0.4104 H         1 <0>         0.0476
     45 H13        -6.2099   -1.9843    1.2770 H         1 <0>         0.0476
     46 H14        -6.8971    1.5293   -0.9685 H         1 <0>         0.0476
     47 H15        -7.1160    0.0273   -1.8700 H         1 <0>         0.0476
     48 H16        -8.6181   -2.5777    1.0337 H         1 <0>         0.0439
     49 H17        -8.3702   -1.0169    1.8140 H         1 <0>         0.0439
     50 H18        -8.7683    1.0435    0.5119 H         1 <0>         0.0439
     51 H19        -9.2918    0.9003   -1.1654 H         1 <0>         0.0439
     52 H20       -10.0700   -0.9097    0.1630 H         1 <0>         0.1220
     53 H21        -0.6469    1.7552    0.2291 H         1 <0>         0.1564
     54 H22         8.4502   -2.9757   -0.1811 H         1 <0>         0.0428
     55 H23         8.5152   -1.2956   -0.7672 H         1 <0>         0.0428
     56 H24         8.5258   -1.6191    0.9823 H         1 <0>         0.0428
     57 H25         6.6893   -2.8577    1.9460 H         1 <0>         0.0428
     58 H26         5.0700   -2.4609    1.3615 H         1 <0>         0.0428
     59 H27         5.9779   -3.8045    0.6101 H         1 <0>         0.0428
     60 H28        -5.1872    2.1232    0.5720 H         1 <0>         0.0638
     61 H29        -4.3152   -1.9692   -0.4624 H         1 <0>         0.0849
     62 H30        -2.7659    2.5670    0.5366 H         1 <0>         0.0652
@<TRIPOS>BOND
     1    1   19 2
     2    2   10 1
     3    2   15 1
     4    2   16 2
     5    3   16 ar
     6    3   21 ar
     7    4   22 1
     8    4   23 1
     9    4   26 1
    10    5   19 am
    11    5   27 1
    12    5   28 1
    13    6   20 ar
    14    6   21 ar
    15    7   24 1
    16    7   25 1
    17    7   52 1
    18    8   21 1
    19    8   29 1
    20    8   53 1
    21    9   29 ar
    22    9   31 ar
    23   10   11 1
    24   10   12 1
    25   10   33 1
    26   11   13 1
    27   11   34 1
    28   11   35 1
    29   12   14 1
    30   12   36 1
    31   12   37 1
    32   13   14 1
    33   13   38 1
    34   13   39 1
    35   14   40 1
    36   14   41 1
    37   15   18 1
    38   15   19 1
    39   16   17 ar
    40   17   18 2
    41   17   20 ar
    42   18   42 1
    43   20   43 1
    44   22   24 1
    45   22   44 1
    46   22   45 1
    47   23   25 1
    48   23   46 1
    49   23   47 1
    50   24   48 1
    51   24   49 1
    52   25   50 1
    53   25   51 1
    54   26   30 ar
    55   26   31 ar
    56   27   54 1
    57   27   55 1
    58   27   56 1
    59   28   57 1
    60   28   58 1
    61   28   59 1
    62   29   32 ar
    63   30   32 ar
    64   30   60 1
    65   31   61 1
    66   32   62 1
