@<TRIPOS>MOLECULE
DB11633
   48    51     0     0     0
SMALL
USER_CHARGES

@<TRIPOS>ATOM
      1 S1         -1.0519   -2.1029   -2.1976 S.3       1 <0>        -0.0795
      2 F1          3.4195   -1.4543   -1.6656 F         1 <0>        -0.2051
      3 F2          5.1237    0.3384    3.2127 F         1 <0>        -0.2055
      4 O1          0.8027    0.5107    1.0237 O.3       1 <0>        -0.3814
      5 N1          1.9656    2.0169   -1.1986 N.pl3     1 <0>        -0.2489
      6 N2         -1.5609   -0.8875    0.0264 N.2       1 <0>        -0.2437
      7 N3          1.1874    3.0221   -0.8122 N.2       1 <0>        -0.1583
      8 N4          3.3321    3.6901   -1.2451 N.2       1 <0>        -0.2228
      9 N5         -8.5449    1.6798    1.7189 N.1       1 <0>        -0.1909
     10 C1          1.5104   -0.1990   -0.0026 C.3       1 <0>         0.1214
     11 C2          0.7971   -1.5929   -0.2170 C.3       1 <0>         0.0397
     12 C3          1.4128    0.6626   -1.3027 C.3       1 <0>         0.0769
     13 C4          2.9784   -0.3896    0.4097 C.ar      1 <0>         0.0242
     14 C5          0.8677   -2.5263    1.0051 C.3       1 <0>        -0.0534
     15 C6         -0.6606   -1.4601   -0.6857 C.2       1 <0>         0.0849
     16 C7          3.8301   -1.0123   -0.4686 C.ar      1 <0>         0.1295
     17 C8          3.3722    0.0723    1.6413 C.ar      1 <0>        -0.0177
     18 C9         -2.7371   -0.9481   -0.6954 C.2       1 <0>         0.0784
     19 C10         4.7040   -0.0996    2.0186 C.ar      1 <0>         0.1239
     20 C11         5.1619   -1.1840   -0.0911 C.ar      1 <0>        -0.0234
     21 C12         3.2288    2.3985   -1.4559 C.cat     1 <0>         0.1144
     22 C13        -2.6587   -1.5693   -1.9242 C.2       1 <0>         0.0033
     23 C14         5.5989   -0.7278    1.1526 C.ar      1 <0>        -0.0237
     24 C15        -3.9592   -0.3947   -0.1877 C.ar      1 <0>         0.0009
     25 C16         2.0667    4.0253   -0.8559 C.2       1 <0>         0.1379
     26 C17        -5.1846   -0.9560   -0.5506 C.ar      1 <0>        -0.0513
     27 C18        -3.9250    0.7054    0.6706 C.ar      1 <0>        -0.0513
     28 C19        -6.3728   -0.4182   -0.0565 C.ar      1 <0>        -0.0437
     29 C20        -5.1136    1.2429    1.1648 C.ar      1 <0>        -0.0437
     30 C21        -6.3375    0.6811    0.8011 C.ar      1 <0>         0.0518
     31 C22        -7.5549    1.2318    1.3074 C.1       1 <0>         0.0992
     32 H1          1.3415   -2.1232   -1.0097 H         1 <0>         0.0399
     33 H2          0.3631    0.8202   -1.5801 H         1 <0>         0.0541
     34 H3          1.8999    0.1913   -2.1628 H         1 <0>         0.0541
     35 H4          0.3866   -2.0728    1.8785 H         1 <0>         0.0237
     36 H5          1.9007   -2.7681    1.2716 H         1 <0>         0.0237
     37 H6          0.3533   -3.4727    0.8016 H         1 <0>         0.0237
     38 H7          1.1062    1.4336    1.0429 H         1 <0>         0.2107
     39 H8          2.7089    0.5587    2.3470 H         1 <0>         0.0651
     40 H9          5.8585   -1.6730   -0.7658 H         1 <0>         0.0647
     41 H10         4.0176    1.7401   -1.7903 H         1 <0>         0.1044
     42 H11        -3.4215   -1.7317   -2.6730 H         1 <0>         0.0715
     43 H12         6.6357   -0.8613    1.4466 H         1 <0>         0.0647
     44 H13         1.7766    5.0320   -0.5950 H         1 <0>         0.1065
     45 H14        -5.2525   -1.8235   -1.2019 H         1 <0>         0.0624
     46 H15        -2.9836    1.1636    0.9645 H         1 <0>         0.0624
     47 H16        -7.3192   -0.8693   -0.3457 H         1 <0>         0.0631
     48 H17        -5.0700    2.1007    1.8316 H         1 <0>         0.0631
@<TRIPOS>BOND
     1    1   15 1
     2    1   22 1
     3    2   16 1
     4    3   19 1
     5    4   10 1
     6    4   38 1
     7    5    7 1
     8    5   12 1
     9    5   21 2
    10    6   15 2
    11    6   18 1
    12    7   25 1
    13    8   21 1
    14    8   25 2
    15    9   31 3
    16   10   11 1
    17   10   12 1
    18   10   13 1
    19   11   14 1
    20   11   15 1
    21   11   32 1
    22   12   33 1
    23   12   34 1
    24   13   16 ar
    25   13   17 ar
    26   14   35 1
    27   14   36 1
    28   14   37 1
    29   16   20 ar
    30   17   19 ar
    31   17   39 1
    32   18   22 2
    33   18   24 1
    34   19   23 ar
    35   20   23 ar
    36   20   40 1
    37   21   41 1
    38   22   42 1
    39   23   43 1
    40   24   26 ar
    41   24   27 ar
    42   25   44 1
    43   26   28 ar
    44   26   45 1
    45   27   29 ar
    46   27   46 1
    47   28   30 ar
    48   28   47 1
    49   29   30 ar
    50   29   48 1
    51   30   31 1
