@<TRIPOS>MOLECULE
DB11336
   25    27     0     0     0
SMALL
USER_CHARGES

@<TRIPOS>ATOM
      1 O1         -2.7112   -0.5501    1.0175 O.3       1 <0>        -0.4662
      2 N1         -0.0997    0.1586    0.0020 N.pl3     1 <0>        -0.3202
      3 N2          2.3365   -1.7098   -0.2082 N.pl3     1 <0>        -0.3404
      4 N3          1.5732    1.8643    0.2017 N.2       1 <0>        -0.2187
      5 N4          4.4516   -1.0114   -0.1235 N.2       1 <0>        -0.2164
      6 N5          3.9581    1.3536    0.1479 N.2       1 <0>        -0.2144
      7 C1         -1.1959    1.0764    0.1055 C.3       1 <0>         0.0686
      8 C2          2.2733   -0.3543   -0.0524 C.2       1 <0>         0.1253
      9 C3          1.2450    0.5615    0.0510 C.2       1 <0>         0.1480
     10 C4         -2.5249    0.3705    0.0575 C.2       1 <0>         0.1218
     11 C5          3.5988    0.0559   -0.0025 C.2       1 <0>         0.1825
     12 C6         -3.5811    0.4874   -0.7767 C.2       1 <0>        -0.0192
     13 C7          3.6613   -2.0566   -0.2454 C.cat     1 <0>         0.0963
     14 C8         -4.5292   -0.4494   -0.3003 C.2       1 <0>        -0.0236
     15 C9          2.8908    2.1756    0.2403 C.2       1 <0>         0.1205
     16 C10        -3.9528   -1.0548    0.7920 C.2       1 <0>         0.0921
     17 H1         -1.1512    1.8075   -0.7109 H         1 <0>         0.0542
     18 H2         -1.1386    1.6319    1.0496 H         1 <0>         0.0542
     19 H3         -0.2862   -0.8314   -0.1155 H         1 <0>         0.1480
     20 H4          1.5522   -2.3441   -0.2827 H         1 <0>         0.1669
     21 H5         -3.6803    1.1513   -1.6230 H         1 <0>         0.0652
     22 H6          3.9793   -3.0828   -0.3626 H         1 <0>         0.1027
     23 H7         -5.5101   -0.6574   -0.7029 H         1 <0>         0.0649
     24 H8          3.1186    3.2292    0.3622 H         1 <0>         0.1048
     25 H9         -4.2776   -1.8217    1.4797 H         1 <0>         0.1029
@<TRIPOS>BOND
     1    1   10 1
     2    1   16 1
     3    2    7 1
     4    2    9 1
     5    2   19 1
     6    3    8 1
     7    3   13 2
     8    3   20 1
     9    4    9 2
    10    4   15 1
    11    5   11 2
    12    5   13 1
    13    6   11 1
    14    6   15 2
    15    7   10 1
    16    7   17 1
    17    7   18 1
    18    8    9 1
    19    8   11 2
    20   10   12 2
    21   12   14 1
    22   12   21 1
    23   13   22 1
    24   14   16 2
    25   14   23 1
    26   15   24 1
    27   16   25 1
