@<TRIPOS>MOLECULE
DB11184
   71    75     0     0     0
SMALL
USER_CHARGES

@<TRIPOS>ATOM
      1 O1          0.3461   -0.1014    1.9137 O.3       1 <0>        -0.4398
      2 O2         -0.1379   -2.5786   -1.2869 O.3       1 <0>        -0.4549
      3 O3          0.6309    1.6268    3.4272 O.2       1 <0>        -0.2449
      4 O4         -4.8326   -2.5760   -0.7609 O.3       1 <0>        -0.5063
      5 O5          4.4870   -3.5300   -1.4319 O.3       1 <0>        -0.5063
      6 O6         -7.5553   -0.1000    3.0009 O.3       1 <0>        -0.4797
      7 O7         -6.9803    2.1291   -2.1692 O.3       1 <0>        -0.4797
      8 O8          7.8763   -1.0612    2.3295 O.3       1 <0>        -0.4797
      9 O9          6.6025    2.3164   -2.0294 O.3       1 <0>        -0.4797
     10 O10        -7.8011   -1.8168    1.5330 O.2       1 <0>        -0.2496
     11 O11        -7.0687   -0.0965   -2.6177 O.2       1 <0>        -0.2496
     12 O12         6.2201    0.3168    3.0507 O.2       1 <0>        -0.2496
     13 O13         4.9904    2.8560   -0.5221 O.2       1 <0>        -0.2496
     14 N1         -5.8647   -0.1892    0.0528 N.3       1 <0>        -0.2780
     15 N2          5.4445    0.0615    0.2359 N.3       1 <0>        -0.2780
     16 C1          0.2246   -0.2699    0.4655 C.3       1 <0>         0.1963
     17 C2         -1.1282   -0.8883    0.1734 C.ar      1 <0>         0.0477
     18 C3          1.3698   -1.1440   -0.0065 C.ar      1 <0>         0.0477
     19 C4          0.3348    1.1424   -0.0116 C.ar      1 <0>         0.0190
     20 C5         -1.2241   -1.9843   -0.6918 C.ar      1 <0>         0.1396
     21 C6          1.1190   -2.2240   -0.8605 C.ar      1 <0>         0.1396
     22 C7          0.4995    1.9905    1.0688 C.ar      1 <0>         0.0667
     23 C8         -2.3124   -0.3705    0.7271 C.ar      1 <0>        -0.0427
     24 C9          2.7004   -0.8835    0.3661 C.ar      1 <0>        -0.0427
     25 C10         0.5076    1.2063    2.2943 C.2       1 <0>         0.3411
     26 C11        -3.5531   -0.9322    0.4203 C.ar      1 <0>         0.0087
     27 C12         3.7459   -1.6790   -0.1054 C.ar      1 <0>         0.0087
     28 C13         0.2945    1.6541   -1.2991 C.ar      1 <0>        -0.0533
     29 C14        -2.4679   -2.5426   -1.0049 C.ar      1 <0>         0.0229
     30 C15         2.1675   -3.0168   -1.3389 C.ar      1 <0>         0.0229
     31 C16        -3.6309   -2.0173   -0.4473 C.ar      1 <0>         0.1248
     32 C17         3.4796   -2.7444   -0.9598 C.ar      1 <0>         0.1248
     33 C18         0.6299    3.3600    0.9315 C.ar      1 <0>        -0.0474
     34 C19        -4.7871   -0.3523    1.0291 C.3       1 <0>         0.0286
     35 C20         5.1449   -1.3686    0.3146 C.3       1 <0>         0.0286
     36 C21         0.4238    3.0356   -1.4699 C.ar      1 <0>        -0.0613
     37 C22         0.5904    3.8826   -0.3614 C.ar      1 <0>        -0.0610
     38 C23        -7.0693    0.3247    0.7034 C.3       1 <0>         0.0975
     39 C24        -5.4450    0.7040   -1.0261 C.3       1 <0>         0.0975
     40 C25         6.8018    0.3254    0.7116 C.3       1 <0>         0.0975
     41 C26         5.2798    0.5428   -1.1349 C.3       1 <0>         0.0975
     42 C27        -7.4982   -0.6527    1.7625 C.2       1 <0>         0.3190
     43 C28        -6.5788    0.8432   -2.0039 C.2       1 <0>         0.3190
     44 C29         6.9076   -0.1294    2.1410 C.2       1 <0>         0.3190
     45 C30         5.5967    2.0124   -1.1701 C.2       1 <0>         0.3190
     46 H1         -2.2643    0.4822    1.4006 H         1 <0>         0.0627
     47 H2          2.9109   -0.0557    1.0395 H         1 <0>         0.0627
     48 H3          0.1665    1.0051   -2.1590 H         1 <0>         0.0622
     49 H4         -2.5283   -3.3917   -1.6818 H         1 <0>         0.0691
     50 H5          1.9510   -3.8490   -2.0048 H         1 <0>         0.0691
     51 H6          0.7586    4.0106    1.7891 H         1 <0>         0.0626
     52 H7         -5.0682   -1.0386    1.8377 H         1 <0>         0.0477
     53 H8         -4.5621    0.6124    1.5050 H         1 <0>         0.0477
     54 H9          5.2300   -1.7432    1.3422 H         1 <0>         0.0477
     55 H10         5.8751   -1.9308   -0.2813 H         1 <0>         0.0477
     56 H11         0.3956    3.4599   -2.4698 H         1 <0>         0.0618
     57 H12         0.6894    4.9538   -0.5145 H         1 <0>         0.0618
     58 H13        -7.9263    0.4178    0.0274 H         1 <0>         0.0542
     59 H14        -6.8983    1.3104    1.1546 H         1 <0>         0.0542
     60 H15        -5.1704    1.6952   -0.6425 H         1 <0>         0.0542
     61 H16        -4.5938    0.3331   -1.6064 H         1 <0>         0.0542
     62 H17         7.5542   -0.1896    0.1008 H         1 <0>         0.0542
     63 H18         7.0622    1.3896    0.7237 H         1 <0>         0.0542
     64 H19         5.9412    0.0097   -1.8302 H         1 <0>         0.0542
     65 H20         4.2589    0.4487   -1.5197 H         1 <0>         0.0542
     66 H21        -5.5396   -2.1984   -0.2143 H         1 <0>         0.2921
     67 H22         4.1111   -4.2163   -2.0094 H         1 <0>         0.2921
     68 H23        -7.8529   -0.7461    3.6763 H         1 <0>         0.2951
     69 H24        -7.7083    2.2038   -2.8224 H         1 <0>         0.2951
     70 H25         7.9433   -1.3342    3.2693 H         1 <0>         0.2951
     71 H26         6.7846    3.2800   -2.0529 H         1 <0>         0.2951
@<TRIPOS>BOND
     1    1   16 1
     2    1   25 1
     3    2   20 1
     4    2   21 1
     5    3   25 2
     6    4   31 1
     7    4   66 1
     8    5   32 1
     9    5   67 1
    10    6   42 1
    11    6   68 1
    12    7   43 1
    13    7   69 1
    14    8   44 1
    15    8   70 1
    16    9   45 1
    17    9   71 1
    18   10   42 2
    19   11   43 2
    20   12   44 2
    21   13   45 2
    22   14   34 1
    23   14   38 1
    24   14   39 1
    25   15   35 1
    26   15   40 1
    27   15   41 1
    28   16   17 1
    29   16   18 1
    30   16   19 1
    31   17   20 ar
    32   17   23 ar
    33   18   21 ar
    34   18   24 ar
    35   19   22 ar
    36   19   28 ar
    37   20   29 ar
    38   21   30 ar
    39   22   25 1
    40   22   33 ar
    41   23   26 ar
    42   23   46 1
    43   24   27 ar
    44   24   47 1
    45   26   31 ar
    46   26   34 1
    47   27   32 ar
    48   27   35 1
    49   28   36 ar
    50   28   48 1
    51   29   31 ar
    52   29   49 1
    53   30   32 ar
    54   30   50 1
    55   33   37 ar
    56   33   51 1
    57   34   52 1
    58   34   53 1
    59   35   54 1
    60   35   55 1
    61   36   37 ar
    62   36   56 1
    63   37   57 1
    64   38   42 1
    65   38   58 1
    66   38   59 1
    67   39   43 1
    68   39   60 1
    69   39   61 1
    70   40   44 1
    71   40   62 1
    72   40   63 1
    73   41   45 1
    74   41   64 1
    75   41   65 1
