@<TRIPOS>MOLECULE
DB11219
   41    43     0     0     0
SMALL
USER_CHARGES

@<TRIPOS>ATOM
      1 O1         -2.0751   -1.0844    2.5995 O.2       1 <0>        -0.2918
      2 C1         -2.0777    0.7314   -0.3954 C.3       1 <0>        -0.0156
      3 C2         -2.8240   -0.4251    0.3407 C.3       1 <0>         0.0362
      4 C3         -0.7650   -0.0931   -0.5456 C.3       1 <0>        -0.0065
      5 C4         -2.6525   -1.6287   -0.6222 C.3       1 <0>        -0.0395
      6 C5         -1.2492   -1.3884   -1.2406 C.3       1 <0>        -0.0447
      7 C6         -0.4679   -0.4800    0.8891 C.2       1 <0>        -0.0002
      8 C7         -1.8304   -0.7122    1.4672 C.2       1 <0>         0.1659
      9 C8         -1.9191    2.0276    0.4311 C.3       1 <0>        -0.0584
     10 C9         -2.7028    1.1490   -1.7419 C.3       1 <0>        -0.0584
     11 C10        -4.2386   -0.1710    0.8022 C.3       1 <0>        -0.0520
     12 C11         0.6854   -0.5685    1.5479 C.2       1 <0>        -0.0478
     13 C12         2.0287   -0.3399    0.9792 C.ar      1 <0>        -0.0246
     14 C13         2.7285   -1.4095    0.4488 C.ar      1 <0>        -0.0543
     15 C14         2.5579    0.9390    0.9895 C.ar      1 <0>        -0.0543
     16 C15         3.9976   -1.1936   -0.0882 C.ar      1 <0>        -0.0583
     17 C16         3.8269    1.1549    0.4524 C.ar      1 <0>        -0.0583
     18 C17         4.5469    0.0886   -0.0865 C.ar      1 <0>        -0.0504
     19 C18         5.9034    0.3193   -0.6616 C.3       1 <0>        -0.0397
     20 H1          0.0467    0.4200   -1.0653 H         1 <0>         0.0355
     21 H2         -3.4210   -1.6485   -1.4023 H         1 <0>         0.0275
     22 H3         -2.6858   -2.5894   -0.0952 H         1 <0>         0.0275
     23 H4         -0.5818   -2.2390   -1.0596 H         1 <0>         0.0272
     24 H5         -1.3239   -1.2563   -2.3252 H         1 <0>         0.0272
     25 H6         -1.5392    1.8672    1.4442 H         1 <0>         0.0235
     26 H7         -1.2256    2.7145   -0.0677 H         1 <0>         0.0235
     27 H8         -2.8813    2.5420    0.5345 H         1 <0>         0.0235
     28 H9         -3.6502    1.6761   -1.5822 H         1 <0>         0.0235
     29 H10        -2.0305    1.8279   -2.2789 H         1 <0>         0.0235
     30 H11        -2.9190    0.3165   -2.4150 H         1 <0>         0.0235
     31 H12        -4.2820    0.6539    1.5210 H         1 <0>         0.0239
     32 H13        -4.8952    0.0741   -0.0382 H         1 <0>         0.0239
     33 H14        -4.6501   -1.0550    1.3019 H         1 <0>         0.0239
     34 H15         0.6876   -0.8494    2.5985 H         1 <0>         0.0627
     35 H16         2.3106   -2.4126    0.4421 H         1 <0>         0.0624
     36 H17         2.0061    1.7772    1.4067 H         1 <0>         0.0624
     37 H18         4.5494   -2.0327   -0.5036 H         1 <0>         0.0620
     38 H19         4.2447    2.1581    0.4609 H         1 <0>         0.0620
     39 H20         6.1111   -0.3816   -1.4774 H         1 <0>         0.0278
     40 H21         5.9900    1.3289   -1.0775 H         1 <0>         0.0278
     41 H22         6.6663    0.1924    0.1128 H         1 <0>         0.0278
@<TRIPOS>BOND
     1    1    8 2
     2    2    3 1
     3    2    4 1
     4    2    9 1
     5    2   10 1
     6    3    5 1
     7    3    8 1
     8    3   11 1
     9    4    6 1
    10    4    7 1
    11    4   20 1
    12    5    6 1
    13    5   21 1
    14    5   22 1
    15    6   23 1
    16    6   24 1
    17    7    8 1
    18    7   12 2
    19    9   25 1
    20    9   26 1
    21    9   27 1
    22   10   28 1
    23   10   29 1
    24   10   30 1
    25   11   31 1
    26   11   32 1
    27   11   33 1
    28   12   13 1
    29   12   34 1
    30   13   14 ar
    31   13   15 ar
    32   14   16 ar
    33   14   35 1
    34   15   17 ar
    35   15   36 1
    36   16   18 ar
    37   16   37 1
    38   17   18 ar
    39   17   38 1
    40   18   19 1
    41   19   39 1
    42   19   40 1
    43   19   41 1
