@<TRIPOS>MOLECULE
DB11799
   50    54     0     0     0
SMALL
USER_CHARGES

@<TRIPOS>ATOM
      1 F1          5.7641    1.8965   -1.4152 F         1 <0>        -0.2050
      2 F2          5.9061   -2.5304    0.2945 F         1 <0>        -0.2050
      3 F3          8.6714    0.8248    2.1604 F         1 <0>        -0.2053
      4 O1         -4.5036   -1.7981    0.2068 O.3       1 <0>        -0.3536
      5 O2         -2.7772    2.5544    0.9118 O.2       1 <0>        -0.2682
      6 O3         -0.3553    3.0721    0.1036 O.3       1 <0>        -0.5017
      7 O4          2.1066    1.9055   -0.3788 O.2       1 <0>        -0.2831
      8 O5          2.8283   -2.0929    0.1168 O.2       1 <0>        -0.2700
      9 N1         -3.6577    0.4652    0.4558 N.am      1 <0>        -0.2657
     10 N2         -1.0504   -0.5560    0.2602 N.pl3     1 <0>        -0.3352
     11 N3          3.4510   -0.2851   -1.2178 N.am      1 <0>        -0.3069
     12 C1         -5.0524    0.9126    0.5856 C.3       1 <0>         0.0312
     13 C2         -5.8209   -1.2387    0.2369 C.3       1 <0>         0.0628
     14 C3         -5.8478   -0.1627    1.3096 C.3       1 <0>        -0.0077
     15 C4         -5.7182    0.9573   -0.7969 C.3       1 <0>        -0.0318
     16 C5         -6.1622   -0.4915   -1.0577 C.3       1 <0>        -0.0248
     17 C6         -3.4328   -0.8819   -0.0768 C.3       1 <0>         0.1458
     18 C7         -2.1641   -1.4628    0.5212 C.3       1 <0>         0.0667
     19 C8         -2.6110    1.3802    0.5827 C.2       1 <0>         0.2690
     20 C9         -1.2281    0.8332    0.2995 C.2       1 <0>         0.1505
     21 C10         0.2231   -1.0621    0.0393 C.2       1 <0>         0.0214
     22 C11        -0.2135    1.7027    0.0948 C.2       1 <0>         0.1936
     23 C12         1.3158   -0.3199   -0.1760 C.2       1 <0>         0.1030
     24 C13         1.1561    1.1579   -0.1734 C.2       1 <0>         0.2357
     25 C14         2.5923   -0.9987   -0.3981 C.2       1 <0>         0.2496
     26 C15         4.7711   -0.7468   -1.5839 C.3       1 <0>         0.0426
     27 C16         5.8102   -0.3271   -0.5847 C.ar      1 <0>         0.0401
     28 C17         6.2578    0.9937   -0.5564 C.ar      1 <0>         0.1335
     29 C18         6.3291   -1.2588    0.3145 C.ar      1 <0>         0.1335
     30 C19         7.2242    1.3828    0.3713 C.ar      1 <0>         0.0093
     31 C20         7.2953   -0.8696    1.2420 C.ar      1 <0>         0.0093
     32 C21         7.7428    0.4511    1.2705 C.ar      1 <0>         0.1289
     33 H1         -5.1018    1.8815    1.0906 H         1 <0>         0.0502
     34 H2         -6.5249   -2.0503    0.4401 H         1 <0>         0.0597
     35 H3         -5.3652   -0.4797    2.2399 H         1 <0>         0.0308
     36 H4         -6.8702    0.1701    1.5198 H         1 <0>         0.0308
     37 H5         -5.0505    1.3272   -1.5818 H         1 <0>         0.0284
     38 H6         -6.6005    1.6077   -0.7706 H         1 <0>         0.0284
     39 H7         -7.2424   -0.5090   -1.2410 H         1 <0>         0.0291
     40 H8         -5.6572   -0.9158   -1.9310 H         1 <0>         0.0291
     41 H9         -3.3304   -0.7934   -1.1659 H         1 <0>         0.0828
     42 H10        -2.2758   -1.6059    1.6043 H         1 <0>         0.0534
     43 H11        -1.9871   -2.4589    0.0948 H         1 <0>         0.0534
     44 H12         0.2581   -2.1467    0.0515 H         1 <0>         0.0818
     45 H13        -1.2879    3.3087    0.2210 H         1 <0>         0.2924
     46 H14         3.1579    0.6076   -1.6027 H         1 <0>         0.1493
     47 H15         5.0082   -0.3300   -2.5694 H         1 <0>         0.0513
     48 H16         4.7477   -1.8366   -1.6969 H         1 <0>         0.0513
     49 H17         7.5725    2.4111    0.3935 H         1 <0>         0.0675
     50 H18         7.6993   -1.5948    1.9419 H         1 <0>         0.0675
@<TRIPOS>BOND
     1    1   28 1
     2    2   29 1
     3    3   32 1
     4    4   13 1
     5    4   17 1
     6    5   19 2
     7    6   22 1
     8    6   45 1
     9    7   24 2
    10    8   25 2
    11    9   12 1
    12    9   17 1
    13    9   19 am
    14   10   18 1
    15   10   20 1
    16   10   21 2
    17   11   25 am
    18   11   26 1
    19   11   46 1
    20   12   14 1
    21   12   15 1
    22   12   33 1
    23   13   14 1
    24   13   16 1
    25   13   34 1
    26   14   35 1
    27   14   36 1
    28   15   16 1
    29   15   37 1
    30   15   38 1
    31   16   39 1
    32   16   40 1
    33   17   18 1
    34   17   41 1
    35   18   42 1
    36   18   43 1
    37   19   20 1
    38   20   22 2
    39   21   23 1
    40   21   44 1
    41   22   24 1
    42   23   24 1
    43   23   25 1
    44   26   27 1
    45   26   47 1
    46   26   48 1
    47   27   28 ar
    48   27   29 ar
    49   28   30 ar
    50   29   31 ar
    51   30   32 ar
    52   30   49 1
    53   31   32 ar
    54   31   50 1
