@<TRIPOS>MOLECULE
DB11827
   55    58     0     0     0
SMALL
USER_CHARGES

@<TRIPOS>ATOM
      1 Cl1         2.0017   -4.1508    0.9381 Cl        1 <0>        -0.0832
      2 O1         -3.3402   -0.4685   -0.5426 O.3       1 <0>        -0.3288
      3 O2         -3.4542   -0.3377    1.7759 O.3       1 <0>        -0.3397
      4 O3         -5.6578    2.3242   -0.0455 O.3       1 <0>        -0.3861
      5 O4         -1.2910    1.5707    1.7052 O.3       1 <0>        -0.3834
      6 O5         -2.9106    3.4749    0.1007 O.3       1 <0>        -0.3864
      7 O6         -5.4678    0.1050   -2.4379 O.3       1 <0>        -0.3920
      8 O7          5.9546    1.3142   -0.6876 O.3       1 <0>        -0.4922
      9 C1         -4.6084    0.1137   -0.2096 C.3       1 <0>         0.1473
     10 C2         -2.5600   -0.2172    0.6482 C.3       1 <0>         0.2268
     11 C3         -4.4391    1.6460   -0.3359 C.3       1 <0>         0.1169
     12 C4         -2.1002    1.2555    0.5731 C.3       1 <0>         0.1417
     13 C5         -3.3212    2.1899    0.5682 C.3       1 <0>         0.1151
     14 C6         -4.7744   -0.3922    1.2157 C.3       1 <0>         0.0852
     15 C7         -5.6882   -0.4197   -1.1405 C.3       1 <0>         0.0781
     16 C8         -1.4110   -1.2027    0.7120 C.ar      1 <0>         0.0142
     17 C9         -0.4785   -1.2554   -0.3242 C.ar      1 <0>        -0.0485
     18 C10        -1.2857   -2.0576    1.8070 C.ar      1 <0>        -0.0520
     19 C11         0.5793   -2.1625   -0.2651 C.ar      1 <0>        -0.0243
     20 C12        -0.2279   -2.9649    1.8662 C.ar      1 <0>        -0.0427
     21 C13         0.7047   -3.0173    0.8301 C.ar      1 <0>         0.0445
     22 C14         1.5576   -2.1866   -1.3947 C.3       1 <0>        -0.0010
     23 C15         2.7328   -1.2506   -1.2062 C.ar      1 <0>        -0.0428
     24 C16         2.5838    0.1147   -1.4501 C.ar      1 <0>        -0.0548
     25 C17         3.9647   -1.7539   -0.7881 C.ar      1 <0>        -0.0548
     26 C18         3.6666    0.9767   -1.2762 C.ar      1 <0>        -0.0197
     27 C19         5.0475   -0.8921   -0.6141 C.ar      1 <0>        -0.0197
     28 C20         4.8985    0.4731   -0.8582 C.ar      1 <0>         0.1205
     29 C21         6.9187    0.9537    0.3008 C.3       1 <0>         0.0868
     30 C22         7.5455    2.2129    0.8607 C.3       1 <0>        -0.0307
     31 H1         -4.1806    1.9035   -1.3705 H         1 <0>         0.0650
     32 H2         -1.4937    1.4316   -0.3238 H         1 <0>         0.0678
     33 H3         -3.6903    2.3502    1.5882 H         1 <0>         0.0648
     34 H4         -5.0858   -1.4425    1.2421 H         1 <0>         0.0591
     35 H5         -5.4676    0.1930    1.8254 H         1 <0>         0.0591
     36 H6         -6.6869   -0.1203   -0.8069 H         1 <0>         0.0587
     37 H7         -5.6440   -1.5117   -1.2101 H         1 <0>         0.0587
     38 H8         -5.8804    2.1631    0.8864 H         1 <0>         0.2100
     39 H9         -1.0429    2.5081    1.6328 H         1 <0>         0.2101
     40 H10        -2.5709    3.3734   -0.8047 H         1 <0>         0.2100
     41 H11        -0.5831   -0.5968   -1.1828 H         1 <0>         0.0625
     42 H12        -1.9925   -2.0423    2.6313 H         1 <0>         0.0622
     43 H13        -6.1676   -0.2484   -3.0130 H         1 <0>         0.2095
     44 H14        -0.1435   -3.6240    2.7266 H         1 <0>         0.0632
     45 H15         1.9087   -3.2048   -1.6041 H         1 <0>         0.0362
     46 H16         1.0467   -1.9093   -2.3286 H         1 <0>         0.0362
     47 H17         1.6327    0.5218   -1.7819 H         1 <0>         0.0622
     48 H18         4.1077   -2.8163   -0.6165 H         1 <0>         0.0622
     49 H19         3.5447    2.0391   -1.4686 H         1 <0>         0.0654
     50 H20         5.9967   -1.3287   -0.3182 H         1 <0>         0.0654
     51 H21         7.6911    0.3290   -0.1610 H         1 <0>         0.0694
     52 H22         6.4613    0.4135    1.1392 H         1 <0>         0.0694
     53 H23         8.2993    1.9728    1.6159 H         1 <0>         0.0262
     54 H24         6.7828    2.8548    1.3139 H         1 <0>         0.0262
     55 H25         8.0184    2.7955    0.0632 H         1 <0>         0.0262
@<TRIPOS>BOND
     1    1   21 1
     2    2    9 1
     3    2   10 1
     4    3   10 1
     5    3   14 1
     6    4   11 1
     7    4   38 1
     8    5   12 1
     9    5   39 1
    10    6   13 1
    11    6   40 1
    12    7   15 1
    13    7   43 1
    14    8   28 1
    15    8   29 1
    16    9   11 1
    17    9   14 1
    18    9   15 1
    19   10   12 1
    20   10   16 1
    21   11   13 1
    22   11   31 1
    23   12   13 1
    24   12   32 1
    25   13   33 1
    26   14   34 1
    27   14   35 1
    28   15   36 1
    29   15   37 1
    30   16   17 ar
    31   16   18 ar
    32   17   19 ar
    33   17   41 1
    34   18   20 ar
    35   18   42 1
    36   19   21 ar
    37   19   22 1
    38   20   21 ar
    39   20   44 1
    40   22   23 1
    41   22   45 1
    42   22   46 1
    43   23   24 ar
    44   23   25 ar
    45   24   26 ar
    46   24   47 1
    47   25   27 ar
    48   25   48 1
    49   26   28 ar
    50   26   49 1
    51   27   28 ar
    52   27   50 1
    53   29   30 1
    54   29   51 1
    55   29   52 1
    56   30   53 1
    57   30   54 1
    58   30   55 1
