@<TRIPOS>MOLECULE
DB11512
   81    83     0     0     0
SMALL
USER_CHARGES

@<TRIPOS>ATOM
      1 O1          0.4280   -0.5832   -0.1470 O.3       1 <0>        -0.3391
      2 O2         -0.1187   -2.7637    0.5960 O.3       1 <0>        -0.3427
      3 O3         -2.6191   -0.2043    0.4566 O.3       1 <0>        -0.3384
      4 O4         -2.8375   -2.6411    1.7099 O.3       1 <0>        -0.3810
      5 O5         -2.9409    0.6080   -1.7433 O.3       1 <0>        -0.3415
      6 O6          2.2539   -2.6388   -0.9335 O.3       1 <0>        -0.3864
      7 O7          4.1076    2.0723    1.4280 O.3       1 <0>        -0.3845
      8 O8          4.9009   -1.6970   -1.4154 O.3       1 <0>        -0.3855
      9 O9         -3.2921   -3.0818   -1.8653 O.3       1 <0>        -0.3920
     10 O10        -4.4577    3.8349    0.3456 O.3       1 <0>        -0.3874
     11 O11        -1.9373    4.0664   -0.9730 O.3       1 <0>        -0.3865
     12 O12        -0.7302    0.7406   -3.3579 O.3       1 <0>        -0.3924
     13 N1          1.4218    1.1118    1.9836 N.2       1 <0>        -0.1049
     14 N2         -5.0277    1.0952    1.2973 N.3       1 <0>        -0.3099
     15 N3          5.9565   -0.0227    0.7158 N.2       1 <0>        -0.1049
     16 N4          1.6318    3.4072    1.3073 N.pl3     1 <0>        -0.2892
     17 N5          0.4657    2.8393    3.1817 N.pl3     1 <0>        -0.2892
     18 N6          8.2331   -0.0259    0.3277 N.pl3     1 <0>        -0.2892
     19 N7          6.8809    0.3060   -1.4768 N.pl3     1 <0>        -0.2892
     20 C1         -1.8629   -1.2922   -0.0382 C.3       1 <0>         0.1455
     21 C2         -2.4652   -2.6370    0.3312 C.3       1 <0>         0.1454
     22 C3         -0.4841   -1.3723    0.6025 C.3       1 <0>         0.1891
     23 C4          1.7539   -0.6833    0.3805 C.3       1 <0>         0.1293
     24 C5         -1.2453   -3.5364    0.1260 C.3       1 <0>         0.0924
     25 C6          2.2245    0.7051    0.8166 C.3       1 <0>         0.1727
     26 C7          2.6612   -1.2881   -0.6925 C.3       1 <0>         0.1141
     27 C8          3.6987    0.7166    1.2288 C.3       1 <0>         0.1337
     28 C9          4.1337   -1.2820   -0.2820 C.3       1 <0>         0.1228
     29 C10         4.6008    0.1080    0.1528 C.3       1 <0>         0.1724
     30 C11        -3.5654    0.2629   -0.5031 C.3       1 <0>         0.1780
     31 C12        -3.6759   -3.0263   -0.5018 C.3       1 <0>         0.0780
     32 C13        -4.4180    1.4325    0.0109 C.3       1 <0>         0.0876
     33 C14        -3.5915    2.7211    0.1176 C.3       1 <0>         0.1035
     34 C15        -1.2718   -4.8647    0.8628 C.3       1 <0>        -0.0357
     35 C16        -2.8364    2.9813   -1.1907 C.3       1 <0>         0.1109
     36 C17        -2.0660    1.7359   -1.6450 C.3       1 <0>         0.1129
     37 C18        -1.4277    1.9251   -3.0186 C.3       1 <0>         0.0730
     38 C19         1.2061    2.3788    2.1185 C.2       1 <0>         0.3769
     39 C20        -5.8012   -0.1320    1.1941 C.3       1 <0>        -0.0153
     40 C21         6.9372    0.0843   -0.1188 C.2       1 <0>         0.3769
     41 H1         -1.7027   -1.2181   -1.1210 H         1 <0>         0.0679
     42 H2         -0.5104   -1.0170    1.6402 H         1 <0>         0.0938
     43 H3          1.7732   -1.3460    1.2588 H         1 <0>         0.0661
     44 H4         -1.0599   -3.7231   -0.9388 H         1 <0>         0.0624
     45 H5          2.0547    1.3765   -0.0343 H         1 <0>         0.0784
     46 H6          2.5229   -0.7574   -1.6431 H         1 <0>         0.0648
     47 H7          3.8290    0.1915    2.1842 H         1 <0>         0.0667
     48 H8          4.2996   -2.0250    0.5088 H         1 <0>         0.0657
     49 H9          4.5905    0.8012   -0.6976 H         1 <0>         0.0784
     50 H10        -4.2461   -0.5387   -0.7728 H         1 <0>         0.0927
     51 H11        -3.9981   -4.0363   -0.2213 H         1 <0>         0.0587
     52 H12        -4.5644   -2.4128   -0.3649 H         1 <0>         0.0587
     53 H13        -5.2186    1.6239   -0.7186 H         1 <0>         0.0537
     54 H14        -2.8890    2.6787    0.9591 H         1 <0>         0.0637
     55 H15        -1.2816   -4.7239    1.9488 H         1 <0>         0.0255
     56 H16        -0.3618   -5.4331    0.6402 H         1 <0>         0.0255
     57 H17        -2.1352   -5.4693    0.5717 H         1 <0>         0.0255
     58 H18        -3.5517    3.2921   -1.9632 H         1 <0>         0.0646
     59 H19        -1.2656    1.5061   -0.9304 H         1 <0>         0.0647
     60 H20        -3.2841   -3.4826    1.9037 H         1 <0>         0.2105
     61 H21        -5.6407    1.8596    1.5803 H         1 <0>         0.1221
     62 H22         2.8491   -3.0050   -1.6098 H         1 <0>         0.2100
     63 H23         5.0447    2.0581    1.6873 H         1 <0>         0.2101
     64 H24         5.7817   -1.9535   -1.0950 H         1 <0>         0.2100
     65 H25        -2.1900    2.0874   -3.7872 H         1 <0>         0.0584
     66 H26        -0.7218    2.7600   -3.0392 H         1 <0>         0.0584
     67 H27        -3.3100   -2.1761   -2.2167 H         1 <0>         0.2095
     68 H28        -5.1017    3.8721   -0.3819 H         1 <0>         0.2100
     69 H29        -1.6060    4.3563   -1.8392 H         1 <0>         0.2100
     70 H30        -6.4678   -0.1979    2.0613 H         1 <0>         0.0388
     71 H31        -5.1664   -1.0180    1.2443 H         1 <0>         0.0388
     72 H32        -6.4357   -0.1645    0.3021 H         1 <0>         0.0388
     73 H33        -0.0385    0.6018   -2.6885 H         1 <0>         0.2095
     74 H34         1.3840    4.3676    1.5206 H         1 <0>         0.2546
     75 H35         2.2285    3.2699    0.5007 H         1 <0>         0.2546
     76 H36         0.0812    2.1992    3.8680 H         1 <0>         0.2546
     77 H37         0.2805    3.8279    3.3107 H         1 <0>         0.2546
     78 H38         8.4369   -0.1911    1.3075 H         1 <0>         0.2546
     79 H39         9.0210    0.0528   -0.3057 H         1 <0>         0.2546
     80 H40         7.7331    0.3774   -2.0227 H         1 <0>         0.2546
     81 H41         6.0135    0.3687   -1.9957 H         1 <0>         0.2546
@<TRIPOS>BOND
     1    1   22 1
     2    1   23 1
     3    2   22 1
     4    2   24 1
     5    3   20 1
     6    3   30 1
     7    4   21 1
     8    4   60 1
     9    5   30 1
    10    5   36 1
    11    6   26 1
    12    6   62 1
    13    7   27 1
    14    7   63 1
    15    8   28 1
    16    8   64 1
    17    9   31 1
    18    9   67 1
    19   10   33 1
    20   10   68 1
    21   11   35 1
    22   11   69 1
    23   12   37 1
    24   12   73 1
    25   13   25 1
    26   13   38 2
    27   14   32 1
    28   14   39 1
    29   14   61 1
    30   15   29 1
    31   15   40 2
    32   16   38 1
    33   16   74 1
    34   16   75 1
    35   17   38 1
    36   17   76 1
    37   17   77 1
    38   18   40 1
    39   18   78 1
    40   18   79 1
    41   19   40 1
    42   19   80 1
    43   19   81 1
    44   20   21 1
    45   20   22 1
    46   20   41 1
    47   21   24 1
    48   21   31 1
    49   22   42 1
    50   23   25 1
    51   23   26 1
    52   23   43 1
    53   24   34 1
    54   24   44 1
    55   25   27 1
    56   25   45 1
    57   26   28 1
    58   26   46 1
    59   27   29 1
    60   27   47 1
    61   28   29 1
    62   28   48 1
    63   29   49 1
    64   30   32 1
    65   30   50 1
    66   31   51 1
    67   31   52 1
    68   32   33 1
    69   32   53 1
    70   33   35 1
    71   33   54 1
    72   34   55 1
    73   34   56 1
    74   34   57 1
    75   35   36 1
    76   35   58 1
    77   36   37 1
    78   36   59 1
    79   37   65 1
    80   37   66 1
    81   39   70 1
    82   39   71 1
    83   39   72 1
