@<TRIPOS>MOLECULE
DB11343
    6     5     0     0     0
SMALL
NO_CHARGES

@<TRIPOS>ATOM
      1 Si1         0.4034   -0.0060   -0.0000 Si        1 <0>         0.0000
      2 O1         -1.1586   -0.5675   -0.0024 O.3       1 <0>         0.0000
      3 H1          0.6445    0.8102    1.2168 H         1 <0>         0.0000
      4 H2          0.6412    0.8300   -1.2041 H         1 <0>         0.0000
      5 H3          1.3500   -1.1501   -0.0106 H         1 <0>         0.0000
      6 H4         -1.8805    0.0834    0.0003 H         1 <0>         0.0000
@<TRIPOS>BOND
     1    1    2 1
     2    1    3 1
     3    1    4 1
     4    1    5 1
     5    2    6 1
