@<TRIPOS>MOLECULE
DB11282
   31    31     0     0     0
SMALL
USER_CHARGES

@<TRIPOS>ATOM
      1 O1          0.9842    1.1146    2.1161 O.2       1 <0>        -0.2700
      2 N1          1.6678   -0.0832    0.2287 N.am      1 <0>        -0.2981
      3 C1          3.0440   -0.2829    0.6607 C.3       1 <0>         0.0121
      4 C2          1.3231   -0.6559   -1.0709 C.3       1 <0>         0.0121
      5 C3          0.7308    0.6157    1.0116 C.2       1 <0>         0.2466
      6 C4         -0.6212    0.7880    0.5045 C.ar      1 <0>         0.0371
      7 C5          3.9408    0.8458    0.1957 C.3       1 <0>        -0.0493
      8 C6          0.8196   -2.0781   -0.9345 C.3       1 <0>        -0.0493
      9 C7         -1.6009   -0.1628    0.7912 C.ar      1 <0>        -0.0467
     10 C8         -2.8980    0.0044    0.3063 C.ar      1 <0>        -0.0497
     11 C9         -0.9388    1.9057   -0.2672 C.ar      1 <0>        -0.0496
     12 C10        -3.2155    1.1220   -0.4655 C.ar      1 <0>        -0.0588
     13 C11        -2.2359    2.0726   -0.7522 C.ar      1 <0>        -0.0608
     14 C12        -3.9457   -1.0120    0.6129 C.3       1 <0>        -0.0397
     15 H1          3.0618   -0.3183    1.7557 H         1 <0>         0.0462
     16 H2          3.4089   -1.2489    0.2962 H         1 <0>         0.0462
     17 H3          0.5642   -0.0488   -1.5713 H         1 <0>         0.0462
     18 H4          2.2088   -0.6310   -1.7162 H         1 <0>         0.0462
     19 H5          3.9623    0.9122   -0.8969 H         1 <0>         0.0245
     20 H6          3.5926    1.8104    0.5799 H         1 <0>         0.0245
     21 H7          4.9651    0.6883    0.5472 H         1 <0>         0.0245
     22 H8          1.5861   -2.7253   -0.4954 H         1 <0>         0.0245
     23 H9         -0.0672   -2.1510   -0.3027 H         1 <0>         0.0245
     24 H10         0.5647   -2.4831   -1.9191 H         1 <0>         0.0245
     25 H11        -1.3565   -1.0295    1.4011 H         1 <0>         0.0628
     26 H12        -0.1832    2.6526   -0.4969 H         1 <0>         0.0625
     27 H13        -4.2218    1.2628   -0.8511 H         1 <0>         0.0620
     28 H14        -2.4828    2.9427   -1.3536 H         1 <0>         0.0618
     29 H15        -3.7947   -1.4438    1.6083 H         1 <0>         0.0278
     30 H16        -4.9463   -0.5664    0.6056 H         1 <0>         0.0278
     31 H17        -3.9163   -1.8167   -0.1283 H         1 <0>         0.0278
@<TRIPOS>BOND
     1    1    5 2
     2    2    3 1
     3    2    4 1
     4    2    5 am
     5    3    7 1
     6    3   15 1
     7    3   16 1
     8    4    8 1
     9    4   17 1
    10    4   18 1
    11    5    6 1
    12    6    9 ar
    13    6   11 ar
    14    7   19 1
    15    7   20 1
    16    7   21 1
    17    8   22 1
    18    8   23 1
    19    8   24 1
    20    9   10 ar
    21    9   25 1
    22   10   12 ar
    23   10   14 1
    24   11   13 ar
    25   11   26 1
    26   12   13 ar
    27   12   27 1
    28   13   28 1
    29   14   29 1
    30   14   30 1
    31   14   31 1
