@<TRIPOS>MOLECULE
DB11164
   44    43     0     0     0
SMALL
USER_CHARGES

@<TRIPOS>ATOM
      1 S1          5.4081   -1.9398   -1.5676 S.3       1 <0>        -0.1762
      2 S2         -5.4021   -1.8670    1.6618 S.3       1 <0>        -0.1762
      3 O1          4.3319    0.5831    0.4309 O.3       1 <0>        -0.4638
      4 O2         -4.3332    0.5614   -0.4543 O.3       1 <0>        -0.4638
      5 O3          2.7939    1.5226   -1.0075 O.2       1 <0>        -0.2490
      6 O4         -2.7891    1.5648    0.9334 O.2       1 <0>        -0.2490
      7 N1          1.5141   -0.9073   -1.0661 N.3       1 <0>        -0.3023
      8 N2         -1.5188   -0.8605    1.0957 N.3       1 <0>        -0.3023
      9 C1          0.7458   -0.8685    0.1675 C.3       1 <0>         0.0092
     10 C2         -0.7479   -0.8815   -0.1426 C.3       1 <0>         0.0092
     11 C3          2.9509   -0.8968   -0.7800 C.3       1 <0>         0.1147
     12 C4         -2.9477   -0.8624    0.8173 C.3       1 <0>         0.1147
     13 C5          3.7131   -1.4300   -1.9939 C.3       1 <0>         0.0165
     14 C6         -3.7052   -1.3391    2.0575 C.3       1 <0>         0.0165
     15 C7          3.3177    0.5473   -0.4837 C.2       1 <0>         0.3251
     16 C8         -3.3154    0.5670    0.4569 C.2       1 <0>         0.3251
     17 C9          4.7977    1.8890    0.7849 C.3       1 <0>         0.0897
     18 C10        -4.8002    1.8502   -0.8656 C.3       1 <0>         0.0897
     19 C11         5.9131    1.7564    1.7999 C.3       1 <0>        -0.0306
     20 C12        -5.9198    1.6717   -1.8688 C.3       1 <0>        -0.0306
     21 H1          0.9802    0.0345    0.7446 H         1 <0>         0.0437
     22 H2          0.9913   -1.7365    0.7933 H         1 <0>         0.0437
     23 H3         -0.9901   -1.7828   -0.7207 H         1 <0>         0.0437
     24 H4         -0.9894   -0.0110   -0.7651 H         1 <0>         0.0437
     25 H5          3.1517   -1.5262    0.0968 H         1 <0>         0.0584
     26 H6         -3.1552   -1.5303   -0.0290 H         1 <0>         0.0584
     27 H7          1.2682   -1.7554   -1.5767 H         1 <0>         0.1228
     28 H8         -1.2676   -1.6808    1.6472 H         1 <0>         0.1228
     29 H9          3.2242   -2.3199   -2.4056 H         1 <0>         0.0394
     30 H10         3.7699   -0.6816   -2.7923 H         1 <0>         0.0394
     31 H11        -3.2155   -2.2098    2.5076 H         1 <0>         0.0394
     32 H12        -3.7587   -0.5553    2.8210 H         1 <0>         0.0394
     33 H13         5.7584   -2.3448   -2.7971 H         1 <0>         0.1017
     34 H14        -5.7476   -2.2153    2.9099 H         1 <0>         0.1017
     35 H15         5.1709    2.3984   -0.1106 H         1 <0>         0.0694
     36 H16         3.9722    2.4669    1.2152 H         1 <0>         0.0694
     37 H17        -3.9764    2.4073   -1.3253 H         1 <0>         0.0694
     38 H18        -5.1695    2.4000    0.0073 H         1 <0>         0.0694
     39 H19         5.5598    1.2324    2.6942 H         1 <0>         0.0262
     40 H20         6.7382    1.1645    1.3901 H         1 <0>         0.0262
     41 H21         6.2941    2.7385    2.0930 H         1 <0>         0.0262
     42 H22        -5.5705    1.1073   -2.7397 H         1 <0>         0.0262
     43 H23        -6.7435    1.0997   -1.4290 H         1 <0>         0.0262
     44 H24        -6.3018    2.6397   -2.2050 H         1 <0>         0.0262
@<TRIPOS>BOND
     1    1   13 1
     2    1   33 1
     3    2   14 1
     4    2   34 1
     5    3   15 1
     6    3   17 1
     7    4   16 1
     8    4   18 1
     9    5   15 2
    10    6   16 2
    11    7    9 1
    12    7   11 1
    13    7   27 1
    14    8   10 1
    15    8   12 1
    16    8   28 1
    17    9   10 1
    18    9   21 1
    19    9   22 1
    20   10   23 1
    21   10   24 1
    22   11   13 1
    23   11   15 1
    24   11   25 1
    25   12   14 1
    26   12   16 1
    27   12   26 1
    28   13   29 1
    29   13   30 1
    30   14   31 1
    31   14   32 1
    32   17   19 1
    33   17   35 1
    34   17   36 1
    35   18   20 1
    36   18   37 1
    37   18   38 1
    38   19   39 1
    39   19   40 1
    40   19   41 1
    41   20   42 1
    42   20   43 1
    43   20   44 1
