@<TRIPOS>MOLECULE
DB11359
   17    17     0     0     0
SMALL
USER_CHARGES

@<TRIPOS>ATOM
      1 O1         -1.5831    0.8096   -0.0004 O.3       1 <0>        -0.4915
      2 O2          0.5606    2.5791    0.0004 O.3       1 <0>        -0.5033
      3 C1         -0.3023    0.3458   -0.0002 C.ar      1 <0>         0.1613
      4 C2          0.7735    1.2338   -0.0004 C.ar      1 <0>         0.1584
      5 C3         -0.0712   -1.0298    0.0001 C.ar      1 <0>        -0.0163
      6 C4          2.0804    0.7459   -0.0004 C.ar      1 <0>        -0.0165
      7 C5          1.2356   -1.5176    0.0001 C.ar      1 <0>        -0.0581
      8 C6          2.3113   -0.6297   -0.0001 C.ar      1 <0>        -0.0581
      9 C7         -2.6252   -0.1641   -0.0001 C.3       1 <0>         0.0790
     10 H1         -0.8566   -1.7778    0.0002 H         1 <0>         0.0655
     11 H2          2.9229    1.4322   -0.0003 H         1 <0>         0.0655
     12 H3          1.4169   -2.5885    0.0004 H         1 <0>         0.0619
     13 H4          3.3288   -1.0095    0.0000 H         1 <0>         0.0619
     14 H5         -2.6083   -0.7730    0.9102 H         1 <0>         0.0660
     15 H6         -2.6085   -0.7736   -0.9100 H         1 <0>         0.0660
     16 H7         -3.5752    0.3806   -0.0002 H         1 <0>         0.0660
     17 H8         -0.3996    2.7367    0.0006 H         1 <0>         0.2923
@<TRIPOS>BOND
     1    1    3 1
     2    1    9 1
     3    2    4 1
     4    2   17 1
     5    3    4 ar
     6    3    5 ar
     7    4    6 ar
     8    5    7 ar
     9    5   10 1
    10    6    8 ar
    11    6   11 1
    12    7    8 ar
    13    7   12 1
    14    8   13 1
    15    9   14 1
    16    9   15 1
    17    9   16 1
