@<TRIPOS>MOLECULE
DB11275
   85    91     0     0     0
SMALL
USER_CHARGES

@<TRIPOS>ATOM
      1 O1          2.8565    1.6297   -0.7680 O.3       1 <0>        -0.2983
      2 O2          3.1213   -0.6006   -1.4639 O.3       1 <0>        -0.3481
      3 O3          1.7217    0.5741    2.3906 O.2       1 <0>        -0.2704
      4 O4          6.1793   -2.2082    1.2475 O.2       1 <0>        -0.2735
      5 O5         -0.6794    1.2618    1.6239 O.2       1 <0>        -0.2754
      6 N1          3.3148    0.0101    0.7654 N.am      1 <0>        -0.2332
      7 N2          5.8437   -0.4719   -0.2227 N.am      1 <0>        -0.2900
      8 N3          0.5846    1.2099   -0.3301 N.am      1 <0>        -0.2796
      9 N4         -2.8748   -1.4979   -1.2068 N.3       1 <0>        -0.3008
     10 N5         -8.7391   -0.5486   -0.2171 N.pl3     1 <0>        -0.3604
     11 C1          5.0818    0.6792   -0.6844 C.3       1 <0>         0.0987
     12 C2          3.5903    0.4139   -0.5865 C.3       1 <0>         0.2691
     13 C3          4.0809   -1.0376    1.4332 C.3       1 <0>         0.1099
     14 C4          1.8218    1.6866    0.2233 C.3       1 <0>         0.2201
     15 C5          5.6763    0.9834   -2.0591 C.3       1 <0>        -0.0261
     16 C6          7.0739   -0.6313   -0.9825 C.3       1 <0>         0.0154
     17 C7          2.2549    0.7188    1.3015 C.2       1 <0>         0.2712
     18 C8          7.1462    0.6143   -1.8581 C.3       1 <0>        -0.0352
     19 C9          5.4663   -1.2985    0.8166 C.2       1 <0>         0.2370
     20 C10        -4.2262    0.5421   -0.6171 C.3       1 <0>         0.0014
     21 C11         3.2843   -2.3415    1.4712 C.3       1 <0>        -0.0168
     22 C12        -4.1641   -1.0487   -0.6245 C.3       1 <0>         0.0210
     23 C13        -1.7186    0.5540   -0.4069 C.3       1 <0>         0.0489
     24 C14         1.6950    3.1070    0.7416 C.3       1 <0>         0.0085
     25 C15        -3.0254    1.1139    0.1474 C.3       1 <0>        -0.0324
     26 C16        -1.7364   -0.9741   -0.4325 C.3       1 <0>         0.0100
     27 C17        -5.4071   -1.6901   -1.3534 C.3       1 <0>        -0.0095
     28 C18        -0.5649    1.0378    0.4218 C.2       1 <0>         0.2198
     29 C19        -5.5631    1.0363   -0.0904 C.2       1 <0>        -0.0334
     30 C20         1.9123   -2.0988    2.1257 C.3       1 <0>        -0.0512
     31 C21        -6.6643    0.1903   -0.2721 C.2       1 <0>         0.0064
     32 C22        -6.6772   -1.0944   -0.8502 C.2       1 <0>        -0.0206
     33 C23         3.1605   -2.9153    0.0583 C.3       1 <0>        -0.0603
     34 C24         1.2221    4.0518   -0.3653 C.3       1 <0>        -0.0580
     35 C25         3.0228    3.5961    1.3238 C.3       1 <0>        -0.0580
     36 C26        -2.7635   -2.9575   -1.2868 C.3       1 <0>        -0.0124
     37 C27        -7.9461    0.5272    0.1194 C.2       1 <0>         0.0470
     38 C28        -5.8345    2.2816    0.4915 C.2       1 <0>        -0.0576
     39 C29        -7.9788   -1.5365   -0.8088 C.2       1 <0>         0.0060
     40 C30         1.0709   -3.3594    2.2657 C.3       1 <0>        -0.0650
     41 C31        -8.2226    1.7543    0.7202 C.2       1 <0>        -0.0378
     42 C32        -7.1354    2.6255    0.8934 C.2       1 <0>        -0.0595
     43 H1          5.3475    1.5065   -0.0094 H         1 <0>         0.0572
     44 H2          4.2493   -0.6922    2.4615 H         1 <0>         0.0601
     45 H3          5.5414    2.0287   -2.3510 H         1 <0>         0.0286
     46 H4          5.2572    0.3499   -2.8469 H         1 <0>         0.0286
     47 H5          7.9314   -0.7366   -0.3115 H         1 <0>         0.0465
     48 H6          6.9793   -1.5427   -1.5825 H         1 <0>         0.0465
     49 H7          7.6600    1.4210   -1.3213 H         1 <0>         0.0281
     50 H8          7.6755    0.4378   -2.7983 H         1 <0>         0.0281
     51 H9         -4.1619    0.8857   -1.6605 H         1 <0>         0.0364
     52 H10         3.8352   -3.0711    2.0799 H         1 <0>         0.0321
     53 H11        -4.2116   -1.3832    0.4247 H         1 <0>         0.0471
     54 H12        -1.6018    0.9267   -1.4342 H         1 <0>         0.0407
     55 H13         0.9587    3.1581    1.5530 H         1 <0>         0.0345
     56 H14        -3.0016    2.2083    0.0736 H         1 <0>         0.0279
     57 H15        -3.1293    0.8778    1.2154 H         1 <0>         0.0279
     58 H16         0.5652    1.0189   -1.3272 H         1 <0>         0.1519
     59 H17        -1.7491   -1.3709    0.5928 H         1 <0>         0.0434
     60 H18        -0.7967   -1.3187   -0.8849 H         1 <0>         0.0434
     61 H19        -5.4369   -2.7717   -1.1803 H         1 <0>         0.0329
     62 H20        -5.3345   -1.5190   -2.4346 H         1 <0>         0.0329
     63 H21         3.4955   -0.4497   -2.3452 H         1 <0>         0.2145
     64 H22         1.2856   -1.4622    1.4995 H         1 <0>         0.0266
     65 H23         2.0397   -1.6664    3.1235 H         1 <0>         0.0266
     66 H24         4.0617   -2.8298   -0.5530 H         1 <0>         0.0233
     67 H25         2.9603   -3.9920    0.1333 H         1 <0>         0.0233
     68 H26         2.3015   -2.5041   -0.4782 H         1 <0>         0.0233
     69 H27         1.9133    4.0603   -1.2148 H         1 <0>         0.0234
     70 H28         1.1532    5.0779    0.0128 H         1 <0>         0.0234
     71 H29         0.2285    3.7803   -0.7358 H         1 <0>         0.0234
     72 H30         3.8166    3.6207    0.5697 H         1 <0>         0.0234
     73 H31         2.9134    4.6147    1.7131 H         1 <0>         0.0234
     74 H32         3.3601    2.9710    2.1564 H         1 <0>         0.0234
     75 H33        -3.4717   -3.3714   -2.0112 H         1 <0>         0.0391
     76 H34        -2.9264   -3.4372   -0.3151 H         1 <0>         0.0391
     77 H35        -1.7717   -3.2520   -1.6501 H         1 <0>         0.0391
     78 H36        -5.0411    3.0088    0.6391 H         1 <0>         0.0621
     79 H37        -8.4403   -2.4564   -1.1391 H         1 <0>         0.0810
     80 H38         0.8087   -3.7818    1.2909 H         1 <0>         0.0230
     81 H39         1.6049   -4.1230    2.8400 H         1 <0>         0.0230
     82 H40         0.1366   -3.1328    2.7900 H         1 <0>         0.0230
     83 H41        -9.7353   -0.6063   -0.0576 H         1 <0>         0.1653
     84 H42        -9.2237    2.0302    1.0307 H         1 <0>         0.0638
     85 H43        -7.3076    3.5990    1.3476 H         1 <0>         0.0618
@<TRIPOS>BOND
     1    1   12 1
     2    1   14 1
     3    2   12 1
     4    2   63 1
     5    3   17 2
     6    4   19 2
     7    5   28 2
     8    6   12 1
     9    6   13 1
    10    6   17 am
    11    7   11 1
    12    7   16 1
    13    7   19 am
    14    8   14 1
    15    8   28 am
    16    8   58 1
    17    9   22 1
    18    9   26 1
    19    9   36 1
    20   10   37 1
    21   10   39 2
    22   10   83 1
    23   11   12 1
    24   11   15 1
    25   11   43 1
    26   13   19 1
    27   13   21 1
    28   13   44 1
    29   14   17 1
    30   14   24 1
    31   15   18 1
    32   15   45 1
    33   15   46 1
    34   16   18 1
    35   16   47 1
    36   16   48 1
    37   18   49 1
    38   18   50 1
    39   20   22 1
    40   20   25 1
    41   20   29 1
    42   20   51 1
    43   21   30 1
    44   21   33 1
    45   21   52 1
    46   22   27 1
    47   22   53 1
    48   23   25 1
    49   23   26 1
    50   23   28 1
    51   23   54 1
    52   24   34 1
    53   24   35 1
    54   24   55 1
    55   25   56 1
    56   25   57 1
    57   26   59 1
    58   26   60 1
    59   27   32 1
    60   27   61 1
    61   27   62 1
    62   29   31 1
    63   29   38 2
    64   30   40 1
    65   30   64 1
    66   30   65 1
    67   31   32 2
    68   31   37 2
    69   32   39 1
    70   33   66 1
    71   33   67 1
    72   33   68 1
    73   34   69 1
    74   34   70 1
    75   34   71 1
    76   35   72 1
    77   35   73 1
    78   35   74 1
    79   36   75 1
    80   36   76 1
    81   36   77 1
    82   37   41 1
    83   38   42 1
    84   38   78 1
    85   39   79 1
    86   40   80 1
    87   40   81 1
    88   40   82 1
    89   41   42 2
    90   41   84 1
    91   42   85 1
