@<TRIPOS>MOLECULE
DB11823
   32    33     0     0     0
SMALL
USER_CHARGES

@<TRIPOS>ATOM
      1 Cl1         1.6060   -0.8277   -2.6722 Cl        1 <0>        -0.0832
      2 O1         -1.3041   -0.6993   -2.5947 O.2       1 <0>        -0.2951
      3 N1         -0.1942   -2.1106   -0.5815 N.3       1 <0>        -0.3039
      4 C1         -0.4103   -0.6763   -0.3208 C.3       1 <0>         0.1045
      5 C2         -1.3646   -0.5956    0.8992 C.3       1 <0>        -0.0235
      6 C3         -1.9155    0.8135    1.1407 C.3       1 <0>        -0.0503
      7 C4         -2.6690    1.3168   -0.0868 C.3       1 <0>        -0.0462
      8 C5         -1.2034   -0.1125   -1.5164 C.2       1 <0>         0.1577
      9 C6         -1.8040    1.2696   -1.3358 C.3       1 <0>         0.0080
     10 C7          0.9448    0.0256   -0.1699 C.ar      1 <0>        -0.0019
     11 C8          1.9001   -0.0009   -1.1860 C.ar      1 <0>         0.0463
     12 C9          1.2112    0.7026    1.0202 C.ar      1 <0>        -0.0550
     13 C10         0.5442   -2.7262    0.5098 C.3       1 <0>        -0.0146
     14 C11         3.1218    0.6494   -1.0118 C.ar      1 <0>        -0.0431
     15 C12         2.4330    1.3527    1.1944 C.ar      1 <0>        -0.0613
     16 C13         3.3883    1.3262    0.1785 C.ar      1 <0>        -0.0604
     17 H1         -0.8955   -0.9295    1.8315 H         1 <0>         0.0291
     18 H2         -2.2291   -1.2582    0.7427 H         1 <0>         0.0291
     19 H3         -1.1647    1.5570    1.4091 H         1 <0>         0.0266
     20 H4         -2.6118    0.7758    1.9877 H         1 <0>         0.0266
     21 H5         -3.0205    2.3404    0.0848 H         1 <0>         0.0269
     22 H6         -3.5606    0.6950   -0.2390 H         1 <0>         0.0269
     23 H7         -0.9889    1.9988   -1.2803 H         1 <0>         0.0342
     24 H8         -2.4091    1.5131   -2.2158 H         1 <0>         0.0342
     25 H9         -1.0881   -2.5884   -0.6951 H         1 <0>         0.1228
     26 H10         0.5636    0.6937    1.8856 H         1 <0>         0.0621
     27 H11         0.7497   -3.7647    0.2242 H         1 <0>         0.0388
     28 H12        -0.0220   -2.7867    1.4431 H         1 <0>         0.0388
     29 H13         1.5244   -2.2820    0.7032 H         1 <0>         0.0388
     30 H14         3.8772    0.6372   -1.7934 H         1 <0>         0.0632
     31 H15         2.6498    1.8628    2.1286 H         1 <0>         0.0618
     32 H16         4.3414    1.8284    0.3161 H         1 <0>         0.0618
@<TRIPOS>BOND
     1    1   11 1
     2    2    8 2
     3    3    4 1
     4    3   13 1
     5    3   25 1
     6    4    5 1
     7    4    8 1
     8    4   10 1
     9    5    6 1
    10    5   17 1
    11    5   18 1
    12    6    7 1
    13    6   19 1
    14    6   20 1
    15    7    9 1
    16    7   21 1
    17    7   22 1
    18    8    9 1
    19    9   23 1
    20    9   24 1
    21   10   11 ar
    22   10   12 ar
    23   11   14 ar
    24   12   15 ar
    25   12   26 1
    26   13   27 1
    27   13   28 1
    28   13   29 1
    29   14   16 ar
    30   14   30 1
    31   15   16 ar
    32   15   31 1
    33   16   32 1
