@<TRIPOS>MOLECULE
DB11718
   63    65     0     0     0
SMALL
USER_CHARGES

@<TRIPOS>ATOM
      1 Cl1         1.4285   -0.3129   -3.8083 Cl        1 <0>        -0.0835
      2 S1          1.8316   -3.9111    0.7416 S.o2      1 <0>         0.0403
      3 F1         -1.7987   -2.4167    0.5981 F         1 <0>        -0.2028
      4 O1          5.6443    1.0498   -1.6581 O.3       1 <0>        -0.4537
      5 O2          2.1413   -5.2956    1.0464 O.2       1 <0>        -0.1555
      6 O3          2.8512   -3.0271    0.2125 O.2       1 <0>        -0.1555
      7 O4          4.5118   -0.8475   -1.0313 O.2       1 <0>        -0.2265
      8 N1         -4.5738    0.4103   -0.1166 N.pl3     1 <0>        -0.2677
      9 N2         -3.7739   -0.5502   -0.6104 N.2       1 <0>        -0.1702
     10 N3          1.8942    2.2061    0.9756 N.pl3     1 <0>        -0.3117
     11 N4         -0.3317    1.7734    0.4692 N.ar      1 <0>        -0.2144
     12 N5          4.5207    1.0629    0.2853 N.am      1 <0>        -0.2771
     13 N6          0.4152   -3.8731   -0.2376 N.pl3     1 <0>        -0.2180
     14 N7          0.4952    4.0306    0.6396 N.ar      1 <0>        -0.2229
     15 C1         -5.9928    0.1713   -0.0034 C.3       1 <0>         0.0471
     16 C2         -2.5885    1.3184   -0.0442 C.2       1 <0>         0.0459
     17 C3         -2.5624    0.0103   -0.5636 C.2       1 <0>         0.1047
     18 C4         -3.9130    1.5497    0.2375 C.2       1 <0>         0.0356
     19 C5         -1.4089   -0.7236   -1.0189 C.ar      1 <0>         0.0412
     20 C6         -6.6344   -0.0684   -1.3723 C.3       1 <0>        -0.0429
     21 C7         -6.2945   -0.9872    0.9503 C.3       1 <0>        -0.0429
     22 C8         -1.5496    2.2804    0.1862 C.ar      1 <0>         0.0796
     23 C9          3.6958    0.5758    1.3662 C.3       1 <0>         0.0389
     24 C10         2.2124    0.7993    1.0603 C.3       1 <0>         0.0301
     25 C11        -1.0612   -1.9308   -0.4130 C.ar      1 <0>         0.1549
     26 C12        -0.6394   -0.2234   -2.0693 C.ar      1 <0>        -0.0312
     27 C13         0.0565   -2.6376   -0.8570 C.ar      1 <0>         0.0848
     28 C14         0.6305    2.6913    0.6819 C.ar      1 <0>         0.2157
     29 C15        -1.8194    3.6319    0.1133 C.ar      1 <0>        -0.0173
     30 C16         4.1275    1.1891    2.6951 C.3       1 <0>        -0.0451
     31 C17         0.4780   -0.9303   -2.5134 C.ar      1 <0>         0.0436
     32 C18         0.8260   -2.1375   -1.9073 C.ar      1 <0>        -0.0181
     33 C19        -0.7480    4.4684    0.3515 C.ar      1 <0>         0.0332
     34 C20         4.8581    0.3102   -0.8200 C.2       1 <0>         0.4003
     35 C21         1.1995   -3.1827    2.2364 C.3       1 <0>         0.0736
     36 C22         6.0728    0.3910   -2.8552 C.3       1 <0>         0.0833
     37 H1         -6.4356    1.0812    0.4213 H         1 <0>         0.0539
     38 H2         -4.4367    2.3992    0.6562 H         1 <0>         0.0833
     39 H3         -7.7215   -0.1609   -1.2786 H         1 <0>         0.0250
     40 H4         -6.4239    0.7642   -2.0527 H         1 <0>         0.0250
     41 H5         -5.8407   -0.8122    1.9321 H         1 <0>         0.0250
     42 H6         -7.3746   -1.0990    1.0929 H         1 <0>         0.0250
     43 H7         -5.9053   -1.9378    0.5691 H         1 <0>         0.0250
     44 H8         -6.2580   -0.9842   -1.8414 H         1 <0>         0.0250
     45 H9          3.8539   -0.5079    1.4358 H         1 <0>         0.0512
     46 H10         1.6093    0.3327    1.8486 H         1 <0>         0.0480
     47 H11         1.9590    0.3061    0.1143 H         1 <0>         0.0480
     48 H12        -0.9090    0.7147   -2.5509 H         1 <0>         0.0640
     49 H13         2.6268    2.8955    1.0974 H         1 <0>         0.1490
     50 H14        -2.7918    4.0441   -0.1252 H         1 <0>         0.0654
     51 H15         5.1661    0.9204    2.9190 H         1 <0>         0.0248
     52 H16         3.5011    0.8241    3.5156 H         1 <0>         0.0248
     53 H17         4.0755    2.2827    2.6826 H         1 <0>         0.0248
     54 H18         1.6909   -2.6932   -2.2626 H         1 <0>         0.0652
     55 H19         4.8359    2.0281    0.3143 H         1 <0>         0.1523
     56 H20        -0.3873   -4.3965    0.1375 H         1 <0>         0.1734
     57 H21        -0.8622    5.5465    0.3132 H         1 <0>         0.0831
     58 H22         0.3544   -3.7753    2.5916 H         1 <0>         0.0482
     59 H23         0.9019   -2.1521    2.0385 H         1 <0>         0.0482
     60 H24         1.9992   -3.1965    2.9804 H         1 <0>         0.0482
     61 H25         6.6787   -0.4860   -2.6081 H         1 <0>         0.0661
     62 H26         5.2070    0.1057   -3.4605 H         1 <0>         0.0661
     63 H27         6.6860    1.0919   -3.4278 H         1 <0>         0.0661
@<TRIPOS>BOND
     1    1   31 1
     2    2    5 2
     3    2    6 2
     4    2   13 1
     5    2   35 1
     6    3   25 1
     7    4   34 1
     8    4   36 1
     9    7   34 2
    10    8    9 1
    11    8   15 1
    12    8   18 2
    13    9   17 1
    14   10   24 1
    15   10   28 1
    16   10   49 1
    17   11   22 ar
    18   11   28 ar
    19   12   23 1
    20   12   34 am
    21   12   55 1
    22   13   27 1
    23   13   56 1
    24   14   28 ar
    25   14   33 ar
    26   15   20 1
    27   15   21 1
    28   15   37 1
    29   16   17 2
    30   16   18 1
    31   16   22 1
    32   17   19 1
    33   18   38 1
    34   19   25 ar
    35   19   26 ar
    36   20   39 1
    37   20   40 1
    38   20   44 1
    39   21   41 1
    40   21   42 1
    41   21   43 1
    42   22   29 ar
    43   23   24 1
    44   23   30 1
    45   23   45 1
    46   24   46 1
    47   24   47 1
    48   25   27 ar
    49   26   31 ar
    50   26   48 1
    51   27   32 ar
    52   29   33 ar
    53   29   50 1
    54   30   51 1
    55   30   52 1
    56   30   53 1
    57   31   32 ar
    58   32   54 1
    59   33   57 1
    60   35   58 1
    61   35   59 1
    62   35   60 1
    63   36   61 1
    64   36   62 1
    65   36   63 1
