@<TRIPOS>MOLECULE
DB11951
   50    53     0     0     0
SMALL
USER_CHARGES

@<TRIPOS>ATOM
      1 F1          4.1652   -0.2151   -3.3693 F         1 <0>        -0.2055
      2 F2         -6.1006   -2.9404   -1.0588 F         1 <0>        -0.2039
      3 O1          0.4992    0.7652    0.1125 O.3       1 <0>        -0.4878
      4 O2         -0.4225   -2.8763    1.9710 O.2       1 <0>        -0.2751
      5 N1         -0.7091   -2.3137   -0.2929 N.am      1 <0>        -0.2701
      6 N2         -2.6074   -2.2227   -1.7233 N.ar      1 <0>        -0.2373
      7 N3         -1.9304    3.3967   -0.6669 N.ar      1 <0>        -0.2339
      8 N4         -1.7218    3.1770    1.7239 N.ar      1 <0>        -0.2370
      9 C1          2.0021   -0.8813    0.9392 C.3       1 <0>         0.0416
     10 C2          1.4425   -2.2592    0.7377 C.3       1 <0>         0.0496
     11 C3          2.2439   -1.9470    1.9675 C.3       1 <0>        -0.0275
     12 C4          1.0284    0.1928    1.2988 C.3       1 <0>         0.1000
     13 C5          3.1510   -0.4033    0.1196 C.ar      1 <0>        -0.0345
     14 C6         -0.0009   -2.5188    0.8795 C.2       1 <0>         0.2223
     15 C7          3.1192   -0.5339   -1.2687 C.ar      1 <0>        -0.0226
     16 C8          4.2589    0.1737    0.7406 C.ar      1 <0>        -0.0577
     17 C9          4.1950   -0.0876   -2.0363 C.ar      1 <0>         0.1237
     18 C10         5.3349    0.6198   -0.0269 C.ar      1 <0>        -0.0588
     19 C11        -0.4239    1.7678    0.2663 C.ar      1 <0>         0.1595
     20 C12         5.3029    0.4894   -1.4153 C.ar      1 <0>        -0.0264
     21 C13        -2.1009   -2.4739   -0.4952 C.ar      1 <0>         0.1250
     22 C14        -1.0197    2.4100   -0.7998 C.ar      1 <0>         0.0832
     23 C15        -0.8175    2.1971    1.5174 C.ar      1 <0>         0.0730
     24 C16        -2.8616   -2.8807    0.5890 C.ar      1 <0>        -0.0188
     25 C17        -0.6686    2.0252   -2.1988 C.3       1 <0>        -0.0187
     26 C18        -4.2302   -3.0402    0.4009 C.ar      1 <0>        -0.0217
     27 C19        -2.2307    3.7253    0.6040 C.ar      1 <0>         0.1264
     28 C20        -3.9413   -2.3883   -1.8680 C.ar      1 <0>         0.0649
     29 C21        -4.7881   -2.7913   -0.8481 C.ar      1 <0>         0.1415
     30 C22        -3.2331    4.8131    0.7923 C.3       1 <0>        -0.0046
     31 H1          1.9362   -2.9088    0.0188 H         1 <0>         0.0404
     32 H2          1.7480   -1.8576    2.9272 H         1 <0>         0.0283
     33 H3          3.2272   -2.3997    2.0429 H         1 <0>         0.0283
     34 H4          1.5645    0.9601    1.8744 H         1 <0>         0.0706
     35 H5          0.2217   -0.2000    1.9298 H         1 <0>         0.0706
     36 H6          2.2614   -0.9764   -1.7683 H         1 <0>         0.0649
     37 H7          4.2959    0.2836    1.8213 H         1 <0>         0.0621
     38 H8         -0.1959   -2.0112   -1.1174 H         1 <0>         0.1562
     39 H9          6.1974    1.0694    0.4566 H         1 <0>         0.0619
     40 H10         6.1405    0.8365   -2.0130 H         1 <0>         0.0646
     41 H11        -0.4369    1.7945    2.4483 H         1 <0>         0.0868
     42 H12        -2.5007   -3.0908    1.5824 H         1 <0>         0.0653
     43 H13         0.3995    2.1813   -2.3815 H         1 <0>         0.0294
     44 H14        -1.2250    2.6276   -2.9246 H         1 <0>         0.0294
     45 H15        -0.9132    0.9731   -2.3778 H         1 <0>         0.0294
     46 H16        -4.8622   -3.3583    1.2246 H         1 <0>         0.0648
     47 H17        -4.3271   -2.1823   -2.8609 H         1 <0>         0.0859
     48 H18        -2.7190    5.7640    0.9606 H         1 <0>         0.0308
     49 H19        -3.8737    4.9132   -0.0896 H         1 <0>         0.0308
     50 H20        -3.8735    4.6019    1.6543 H         1 <0>         0.0308
@<TRIPOS>BOND
     1    1   17 1
     2    2   29 1
     3    3   12 1
     4    3   19 1
     5    4   14 2
     6    5   14 am
     7    5   21 1
     8    5   38 1
     9    6   21 ar
    10    6   28 ar
    11    7   22 ar
    12    7   27 ar
    13    8   23 ar
    14    8   27 ar
    15    9   10 1
    16    9   11 1
    17    9   12 1
    18    9   13 1
    19   10   11 1
    20   10   14 1
    21   10   31 1
    22   11   32 1
    23   11   33 1
    24   12   34 1
    25   12   35 1
    26   13   15 ar
    27   13   16 ar
    28   15   17 ar
    29   15   36 1
    30   16   18 ar
    31   16   37 1
    32   17   20 ar
    33   18   20 ar
    34   18   39 1
    35   19   22 ar
    36   19   23 ar
    37   20   40 1
    38   21   24 ar
    39   22   25 1
    40   23   41 1
    41   24   26 ar
    42   24   42 1
    43   25   43 1
    44   25   44 1
    45   25   45 1
    46   26   29 ar
    47   26   46 1
    48   27   30 1
    49   28   29 ar
    50   28   47 1
    51   30   48 1
    52   30   49 1
    53   30   50 1
