@<TRIPOS>MOLECULE
DB11260
   76    79     0     0     0
SMALL
USER_CHARGES

@<TRIPOS>ATOM
      1 O1         -1.0694   -0.4111   -1.4859 O.3       1 <0>        -0.4496
      2 O2         -2.3979    0.8847    0.8967 O.3       1 <0>        -0.4570
      3 O3         -0.3774    2.1476   -0.2904 O.3       1 <0>        -0.4565
      4 O4          0.5986   -2.4388   -2.0499 O.2       1 <0>        -0.2881
      5 O5         -2.0321   -2.3447   -2.3054 O.2       1 <0>        -0.2511
      6 O6         -3.8169    1.4165    2.6296 O.2       1 <0>        -0.2450
      7 O7          1.3483    3.5552   -0.9051 O.2       1 <0>        -0.2511
      8 C1          5.3321   -0.3907   -0.4058 C.3       1 <0>        -0.0250
      9 C2          4.6249    0.0569    0.8451 C.3       1 <0>        -0.0283
     10 C3          4.2503   -1.2589    0.1836 C.3       1 <0>        -0.0135
     11 C4          3.7588    1.2878    0.7888 C.3       1 <0>        -0.0454
     12 C5          5.1202    0.3331   -1.6948 C.3       1 <0>        -0.0590
     13 C6          6.7394   -0.8658   -0.2451 C.3       1 <0>        -0.0590
     14 C7          2.9523   -1.3805   -0.4978 C.2       1 <0>        -0.0738
     15 C8         -0.1180   -0.0724    0.7597 C.3       1 <0>         0.0844
     16 C9         -0.4903   -1.0772   -0.3647 C.3       1 <0>         0.1850
     17 C10         2.6381    1.2433    1.8373 C.3       1 <0>        -0.0283
     18 C11        -1.4343    0.0723    1.5486 C.3       1 <0>         0.1167
     19 C12        -1.5913   -1.9734    0.2448 C.3       1 <0>         0.0011
     20 C13        -1.8975   -1.3883    1.6369 C.3       1 <0>        -0.0021
     21 C14         0.5598    1.2332    0.2767 C.3       1 <0>         0.1342
     22 C15         1.8960   -2.1212   -0.1171 C.2       1 <0>        -0.0076
     23 C16         1.3519    1.9204    1.3873 C.2       1 <0>        -0.0361
     24 C17         0.6656   -1.9190   -0.9346 C.2       1 <0>         0.2025
     25 C18        -3.3521   -1.5706    2.0434 C.3       1 <0>        -0.0589
     26 C19         1.8185   -3.0678    1.0351 C.3       1 <0>        -0.0366
     27 C20         0.9627    3.0664    1.9719 C.2       1 <0>        -0.0960
     28 C21        -1.5659   -1.2246   -2.4638 C.2       1 <0>         0.3049
     29 C22        -3.6128    0.9825    1.5066 C.2       1 <0>         0.3395
     30 C23         0.1594    3.2714   -0.8498 C.2       1 <0>         0.3045
     31 C24        -1.4592   -0.5398   -3.7926 C.3       1 <0>         0.0333
     32 C25        -4.6921    0.4823    0.6182 C.ar      1 <0>         0.0590
     33 C26        -0.9356    4.1330   -1.4019 C.3       1 <0>         0.0333
     34 C27        -5.9945    0.5043    1.0737 C.ar      1 <0>        -0.0478
     35 C28        -4.3596    0.0114   -0.6354 C.ar      1 <0>        -0.0478
     36 C29        -7.0087    0.0346    0.2391 C.ar      1 <0>        -0.0610
     37 C30        -5.3739   -0.4581   -1.4701 C.ar      1 <0>        -0.0610
     38 C31        -6.6984   -0.4465   -1.0327 C.ar      1 <0>        -0.0617
     39 H1          5.1573   -0.0058    1.7886 H         1 <0>         0.0312
     40 H2          4.5826   -2.1675    0.6770 H         1 <0>         0.0351
     41 H3          3.3332    1.4578   -0.1996 H         1 <0>         0.0271
     42 H4          4.3922    2.1622    0.9861 H         1 <0>         0.0271
     43 H5          4.1167    0.7134   -1.8884 H         1 <0>         0.0235
     44 H6          5.7932    1.1970   -1.7498 H         1 <0>         0.0235
     45 H7          5.3688   -0.3257   -2.5353 H         1 <0>         0.0235
     46 H8          7.4376   -0.0223   -0.2746 H         1 <0>         0.0235
     47 H9          6.8985   -1.3899    0.7042 H         1 <0>         0.0235
     48 H10         7.0069   -1.5582   -1.0507 H         1 <0>         0.0235
     49 H11         2.8046   -0.7764   -1.3884 H         1 <0>         0.0579
     50 H12         0.5714   -0.5793    1.4414 H         1 <0>         0.0420
     51 H13         2.4174    0.2100    2.1248 H         1 <0>         0.0311
     52 H14         3.0147    1.7082    2.7586 H         1 <0>         0.0311
     53 H15        -1.2358    0.4881    2.5440 H         1 <0>         0.0742
     54 H16        -2.5370   -1.9999   -0.2904 H         1 <0>         0.0312
     55 H17        -1.2602   -3.0124    0.3607 H         1 <0>         0.0312
     56 H18        -1.2622   -1.9013    2.3723 H         1 <0>         0.0335
     57 H19         1.2517    0.9661   -0.5289 H         1 <0>         0.0787
     58 H20        -3.6787   -0.9571    2.8839 H         1 <0>         0.0234
     59 H21        -4.0700   -1.6851    1.2382 H         1 <0>         0.0234
     60 H22        -3.3970   -2.5820    2.4810 H         1 <0>         0.0234
     61 H23         0.9898   -2.8189    1.7029 H         1 <0>         0.0279
     62 H24         1.6621   -4.0877    0.6689 H         1 <0>         0.0279
     63 H25         2.7295   -3.0679    1.6396 H         1 <0>         0.0279
     64 H26         1.5606    3.5213    2.7559 H         1 <0>         0.0536
     65 H27         0.0332    3.5703    1.7346 H         1 <0>         0.0536
     66 H28        -0.4139   -0.3023   -4.0054 H         1 <0>         0.0342
     67 H29        -2.0673    0.3682   -3.7894 H         1 <0>         0.0342
     68 H30        -1.8305   -1.2075   -4.5752 H         1 <0>         0.0342
     69 H31        -1.6106    4.4346   -0.5971 H         1 <0>         0.0342
     70 H32        -1.4801    3.5875   -2.1769 H         1 <0>         0.0342
     71 H33        -0.5004    5.0318   -1.8478 H         1 <0>         0.0342
     72 H34        -6.2533    0.8748    2.0609 H         1 <0>         0.0626
     73 H35        -3.3615    0.0513   -1.0347 H         1 <0>         0.0626
     74 H36        -8.0400    0.0441    0.5792 H         1 <0>         0.0618
     75 H37        -5.1341   -0.8180   -2.4665 H         1 <0>         0.0618
     76 H38        -7.4883   -0.8087   -1.6840 H         1 <0>         0.0618
@<TRIPOS>BOND
     1    1   16 1
     2    1   28 1
     3    2   18 1
     4    2   29 1
     5    3   21 1
     6    3   30 1
     7    4   24 2
     8    5   28 2
     9    6   29 2
    10    7   30 2
    11    8    9 1
    12    8   10 1
    13    8   12 1
    14    8   13 1
    15    9   10 1
    16    9   11 1
    17    9   39 1
    18   10   14 1
    19   10   40 1
    20   11   17 1
    21   11   41 1
    22   11   42 1
    23   12   43 1
    24   12   44 1
    25   12   45 1
    26   13   46 1
    27   13   47 1
    28   13   48 1
    29   14   22 2
    30   14   49 1
    31   15   16 1
    32   15   18 1
    33   15   21 1
    34   15   50 1
    35   16   19 1
    36   16   24 1
    37   17   23 1
    38   17   51 1
    39   17   52 1
    40   18   20 1
    41   18   53 1
    42   19   20 1
    43   19   54 1
    44   19   55 1
    45   20   25 1
    46   20   56 1
    47   21   23 1
    48   21   57 1
    49   22   24 1
    50   22   26 1
    51   23   27 2
    52   25   58 1
    53   25   59 1
    54   25   60 1
    55   26   61 1
    56   26   62 1
    57   26   63 1
    58   27   64 1
    59   27   65 1
    60   28   31 1
    61   29   32 1
    62   30   33 1
    63   31   66 1
    64   31   67 1
    65   31   68 1
    66   32   34 ar
    67   32   35 ar
    68   33   69 1
    69   33   70 1
    70   33   71 1
    71   34   36 ar
    72   34   72 1
    73   35   37 ar
    74   35   73 1
    75   36   38 ar
    76   36   74 1
    77   37   38 ar
    78   37   75 1
    79   38   76 1
