@<TRIPOS>MOLECULE
DB11269
   60    61     0     0     0
SMALL
USER_CHARGES

@<TRIPOS>ATOM
      1 O1         -2.5007    1.5756    0.6387 O.3       1 <0>        -0.4611
      2 O2         -0.9292   -1.6123    3.1664 O.3       1 <0>        -0.5060
      3 O3         -3.2173   -2.2883    2.1182 O.2       1 <0>        -0.2865
      4 O4         -4.1727    1.1630    2.1662 O.2       1 <0>        -0.2449
      5 N1          2.7641   -1.7963    0.0939 N.pl3     1 <0>        -0.3303
      6 C1          0.3578    1.9797    0.5289 C.3       1 <0>        -0.0500
      7 C2          1.6461    2.5094   -0.1071 C.3       1 <0>        -0.0532
      8 C3         -0.6490    3.0779    0.8669 C.3       1 <0>        -0.0185
      9 C4          1.4104    3.2799   -1.4067 C.3       1 <0>        -0.0559
     10 C5         -1.8979    2.5073    1.5259 C.3       1 <0>         0.0928
     11 C6          1.3748   -1.8004    0.3370 C.ar      1 <0>         0.0332
     12 C7          3.7013   -1.6783    1.1935 C.3       1 <0>         0.0093
     13 C8          3.2727   -1.8959   -1.2597 C.3       1 <0>         0.0093
     14 C9         -1.3375   -1.8085    0.8117 C.ar      1 <0>         0.0637
     15 C10         2.7236    3.7215   -2.0351 C.3       1 <0>        -0.0653
     16 C11         0.8950   -1.7041    1.6433 C.ar      1 <0>         0.0016
     17 C12         0.4806   -1.9009   -0.7289 C.ar      1 <0>        -0.0398
     18 C13        -0.4790   -1.7083    1.8836 C.ar      1 <0>         0.1294
     19 C14        -0.8933   -1.9051   -0.4885 C.ar      1 <0>        -0.0456
     20 C15        -3.7592   -1.2943    0.0715 C.ar      1 <0>         0.0363
     21 C16        -2.8113   -1.8164    1.0474 C.2       1 <0>         0.1974
     22 C17        -4.1650    0.0254    0.0707 C.ar      1 <0>         0.0698
     23 C18         3.8406   -0.2258    1.6071 C.3       1 <0>        -0.0494
     24 C19         3.2689   -3.3430   -1.7136 C.3       1 <0>        -0.0494
     25 C20        -3.6374    0.9726    1.0851 C.2       1 <0>         0.3399
     26 C21        -4.2717   -2.1604   -0.8944 C.ar      1 <0>        -0.0501
     27 C22        -5.0636    0.5142   -0.8584 C.ar      1 <0>        -0.0471
     28 C23        -5.1803   -1.6892   -1.8420 C.ar      1 <0>        -0.0610
     29 C24        -5.5763   -0.3520   -1.8241 C.ar      1 <0>        -0.0609
     30 H1          0.6196    1.4346    1.4431 H         1 <0>         0.0266
     31 H2         -0.0955    1.2553   -0.1574 H         1 <0>         0.0266
     32 H3          2.1669    3.1530    0.6124 H         1 <0>         0.0265
     33 H4          2.3071    1.6583   -0.3083 H         1 <0>         0.0265
     34 H5         -0.9569    3.5906   -0.0508 H         1 <0>         0.0298
     35 H6         -0.1903    3.8202    1.5296 H         1 <0>         0.0298
     36 H7          0.8069    4.1742   -1.2214 H         1 <0>         0.0263
     37 H8          0.8610    2.6528   -2.1182 H         1 <0>         0.0263
     38 H9         -2.6019    3.3196    1.7400 H         1 <0>         0.0697
     39 H10        -1.6337    2.0064    2.4647 H         1 <0>         0.0697
     40 H11         4.6898   -2.0355    0.8762 H         1 <0>         0.0461
     41 H12         3.4440   -2.3225    2.0416 H         1 <0>         0.0461
     42 H13         4.3086   -1.5338   -1.2934 H         1 <0>         0.0461
     43 H14         2.7384   -1.2456   -1.9614 H         1 <0>         0.0461
     44 H15         3.3528    2.8584   -2.2757 H         1 <0>         0.0230
     45 H16         3.2818    4.3761   -1.3584 H         1 <0>         0.0230
     46 H17         2.5343    4.2722   -2.9619 H         1 <0>         0.0230
     47 H18         1.5411   -1.6248    2.5108 H         1 <0>         0.0673
     48 H19         0.7874   -1.9756   -1.7661 H         1 <0>         0.0636
     49 H20        -1.5585   -1.9906   -1.3401 H         1 <0>         0.0626
     50 H21         4.1941    0.3857    0.7698 H         1 <0>         0.0245
     51 H22         2.9022    0.2095    1.9604 H         1 <0>         0.0245
     52 H23         4.5730   -0.1360    2.4160 H         1 <0>         0.0245
     53 H24         3.8810   -3.9617   -1.0480 H         1 <0>         0.0245
     54 H25         2.2675   -3.7813   -1.7372 H         1 <0>         0.0245
     55 H26         3.6895   -3.4206   -2.7215 H         1 <0>         0.0245
     56 H27        -3.9743   -3.2057   -0.9182 H         1 <0>         0.0625
     57 H28        -5.3761    1.5544   -0.8503 H         1 <0>         0.0626
     58 H29        -5.5799   -2.3637   -2.5936 H         1 <0>         0.0618
     59 H30        -6.2836    0.0148   -2.5621 H         1 <0>         0.0618
     60 H31        -1.8907   -1.4854    3.1821 H         1 <0>         0.2922
@<TRIPOS>BOND
     1    1   10 1
     2    1   25 1
     3    2   18 1
     4    2   60 1
     5    3   21 2
     6    4   25 2
     7    5   11 1
     8    5   12 1
     9    5   13 1
    10    6    7 1
    11    6    8 1
    12    6   30 1
    13    6   31 1
    14    7    9 1
    15    7   32 1
    16    7   33 1
    17    8   10 1
    18    8   34 1
    19    8   35 1
    20    9   15 1
    21    9   36 1
    22    9   37 1
    23   10   38 1
    24   10   39 1
    25   11   16 ar
    26   11   17 ar
    27   12   23 1
    28   12   40 1
    29   12   41 1
    30   13   24 1
    31   13   42 1
    32   13   43 1
    33   14   18 ar
    34   14   19 ar
    35   14   21 1
    36   15   44 1
    37   15   45 1
    38   15   46 1
    39   16   18 ar
    40   16   47 1
    41   17   19 ar
    42   17   48 1
    43   19   49 1
    44   20   21 1
    45   20   22 ar
    46   20   26 ar
    47   22   25 1
    48   22   27 ar
    49   23   50 1
    50   23   51 1
    51   23   52 1
    52   24   53 1
    53   24   54 1
    54   24   55 1
    55   26   28 ar
    56   26   56 1
    57   27   29 ar
    58   27   57 1
    59   28   29 ar
    60   28   58 1
    61   29   59 1
