@<TRIPOS>MOLECULE
DB11636
   52    55     0     0     0
SMALL
USER_CHARGES

@<TRIPOS>ATOM
      1 O1         -3.3114    0.2205   -1.8158 O.3       1 <0>        -0.3805
      2 O2         -5.1765    0.1346    1.0645 O.2       1 <0>        -0.2946
      3 O3          6.4146   -1.1785   -0.5617 O.2       1 <0>        -0.2927
      4 C1         -2.0147   -0.1360    0.2355 C.3       1 <0>         0.0070
      5 C2         -1.0368    1.0048   -0.1496 C.3       1 <0>        -0.0260
      6 C3          0.3689    0.7906    0.4258 C.3       1 <0>        -0.0156
      7 C4          0.9315   -0.5363   -0.1574 C.3       1 <0>        -0.0276
      8 C5         -3.3158    0.4128   -0.4044 C.3       1 <0>         0.1288
      9 C6         -1.4630   -1.4478   -0.3489 C.3       1 <0>        -0.0440
     10 C7         -1.8104    2.2674    0.2254 C.3       1 <0>        -0.0460
     11 C8         -0.0199   -1.7240    0.1137 C.3       1 <0>        -0.0485
     12 C9         -3.2809    1.9258   -0.0938 C.3       1 <0>        -0.0162
     13 C10         2.3799   -0.7414    0.3607 C.3       1 <0>        -0.0117
     14 C11        -2.2019   -0.2996    1.7704 C.3       1 <0>        -0.0563
     15 C12         1.3164    1.9251    0.1439 C.2       1 <0>        -0.0772
     16 C13         3.2701    0.4381   -0.0544 C.2       1 <0>        -0.0381
     17 C14        -4.5643   -0.2654    0.0755 C.2       1 <0>         0.1621
     18 C15         2.9660   -2.0829   -0.1127 C.3       1 <0>        -0.0389
     19 C16         2.6335    1.7684   -0.0907 C.2       1 <0>        -0.0505
     20 C17         4.4287   -2.2197    0.2703 C.3       1 <0>         0.0104
     21 C18         4.5682    0.2636   -0.3661 C.2       1 <0>        -0.0155
     22 C19        -5.0328   -1.4578   -0.7138 C.3       1 <0>        -0.0031
     23 C20         3.4789    2.9881   -0.3588 C.3       1 <0>        -0.0397
     24 C21         5.2265   -1.0625   -0.2667 C.2       1 <0>         0.1564
     25 H1         -0.9302    1.0262   -1.2469 H         1 <0>         0.0313
     26 H2          0.3065    0.7192    1.5183 H         1 <0>         0.0349
     27 H3          0.9855   -0.4329   -1.2535 H         1 <0>         0.0312
     28 H4         -1.4379   -1.4188   -1.4436 H         1 <0>         0.0272
     29 H5         -2.0951   -2.2969   -0.0673 H         1 <0>         0.0272
     30 H6         -1.4778    3.1387   -0.3480 H         1 <0>         0.0269
     31 H7         -1.6953    2.5084    1.2881 H         1 <0>         0.0269
     32 H8         -0.0047   -1.9784    1.1795 H         1 <0>         0.0268
     33 H9          0.3298   -2.6143   -0.4215 H         1 <0>         0.0268
     34 H10        -3.9048    2.2116    0.7597 H         1 <0>         0.0297
     35 H11        -3.6187    2.5112   -0.9571 H         1 <0>         0.0297
     36 H12         2.3523   -0.7570    1.4604 H         1 <0>         0.0352
     37 H13        -1.2650   -0.5093    2.2925 H         1 <0>         0.0236
     38 H14        -2.6323    0.5899    2.2409 H         1 <0>         0.0236
     39 H15        -2.8700   -1.1403    1.9909 H         1 <0>         0.0236
     40 H16         0.9007    2.9295    0.1631 H         1 <0>         0.0578
     41 H17         2.8631   -2.1705   -1.2026 H         1 <0>         0.0275
     42 H18         2.4173   -2.9199    0.3331 H         1 <0>         0.0275
     43 H19        -3.1670   -0.7124   -2.0347 H         1 <0>         0.2108
     44 H20         4.8290   -3.1479   -0.1518 H         1 <0>         0.0345
     45 H21         4.5521   -2.2514    1.3581 H         1 <0>         0.0345
     46 H22         5.2168    1.0754   -0.6765 H         1 <0>         0.0655
     47 H23        -5.4203   -1.1451   -1.6866 H         1 <0>         0.0307
     48 H24        -4.2371   -2.1947   -0.8300 H         1 <0>         0.0307
     49 H25        -5.8490   -1.9419   -0.1678 H         1 <0>         0.0307
     50 H26         3.9175    2.9438   -1.3615 H         1 <0>         0.0278
     51 H27         4.2829    3.0749    0.3801 H         1 <0>         0.0278
     52 H28         2.8965    3.9150   -0.3062 H         1 <0>         0.0278
@<TRIPOS>BOND
     1    1    8 1
     2    1   43 1
     3    2   17 2
     4    3   24 2
     5    4    5 1
     6    4    8 1
     7    4    9 1
     8    4   14 1
     9    5    6 1
    10    5   10 1
    11    5   25 1
    12    6    7 1
    13    6   15 1
    14    6   26 1
    15    7   11 1
    16    7   13 1
    17    7   27 1
    18    8   12 1
    19    8   17 1
    20    9   11 1
    21    9   28 1
    22    9   29 1
    23   10   12 1
    24   10   30 1
    25   10   31 1
    26   11   32 1
    27   11   33 1
    28   12   34 1
    29   12   35 1
    30   13   16 1
    31   13   18 1
    32   13   36 1
    33   14   37 1
    34   14   38 1
    35   14   39 1
    36   15   19 2
    37   15   40 1
    38   16   19 1
    39   16   21 2
    40   17   22 1
    41   18   20 1
    42   18   41 1
    43   18   42 1
    44   19   23 1
    45   20   24 1
    46   20   44 1
    47   20   45 1
    48   21   24 1
    49   21   46 1
    50   22   47 1
    51   22   48 1
    52   22   49 1
    53   23   50 1
    54   23   51 1
    55   23   52 1
