@<TRIPOS>MOLECULE
DB11936
   60    59     0     0     0
SMALL
USER_CHARGES

@<TRIPOS>ATOM
      1 O1          2.9664    4.4030   -0.0845 O.3       1 <0>        -0.3918
      2 O2          0.5822   -1.3441    1.6034 O.3       1 <0>        -0.4802
      3 O3         -5.4600    1.2563    1.4534 O.3       1 <0>        -0.4802
      4 O4          1.9428   -2.8868    2.5336 O.2       1 <0>        -0.2504
      5 O5         -4.7024   -0.7208    2.2665 O.2       1 <0>        -0.2504
      6 C1          2.1961    3.3358    0.4624 C.3       1 <0>         0.0553
      7 C2          3.0555    2.0656    0.5560 C.3       1 <0>        -0.0269
      8 C3          0.9065    3.1407   -0.3458 C.3       1 <0>        -0.0269
      9 C4          3.5183    1.5030   -0.7934 C.3       1 <0>        -0.0507
     10 C5          0.0092    2.0555    0.2626 C.3       1 <0>        -0.0507
     11 C6          4.4191    0.2692   -0.6600 C.3       1 <0>        -0.0529
     12 C7         -1.2894    1.9029   -0.5331 C.3       1 <0>        -0.0529
     13 C8          1.9028   -2.7107    0.0908 C.3       1 <0>         0.0620
     14 C9         -4.5691   -0.2886   -0.1424 C.3       1 <0>         0.0620
     15 C10         3.8116   -0.9323    0.0756 C.3       1 <0>        -0.0521
     16 C11        -2.2360    0.8426    0.0414 C.3       1 <0>        -0.0521
     17 C12         2.5265   -1.4573   -0.5774 C.3       1 <0>        -0.0378
     18 C13        -3.5657    0.7435   -0.7200 C.3       1 <0>        -0.0378
     19 C14         0.6293   -3.1526   -0.6583 C.3       1 <0>        -0.0497
     20 C15         2.8761   -3.9012    0.1171 C.3       1 <0>        -0.0497
     21 C16        -5.8782   -0.2297   -0.9506 C.3       1 <0>        -0.0497
     22 C17        -4.0058   -1.7169   -0.2432 C.3       1 <0>        -0.0497
     23 C18         1.5028   -2.3398    1.5287 C.2       1 <0>         0.3104
     24 C19        -4.8992    0.0270    1.3180 C.2       1 <0>         0.3104
     25 H1          1.9232    3.6414    1.4801 H         1 <0>         0.0593
     26 H2          2.5168    1.3022    1.1252 H         1 <0>         0.0290
     27 H3          3.9538    2.3036    1.1410 H         1 <0>         0.0290
     28 H4          1.1363    2.9157   -1.3937 H         1 <0>         0.0290
     29 H5          0.3644    4.0951   -0.3708 H         1 <0>         0.0290
     30 H6          4.0771    2.2765   -1.3344 H         1 <0>         0.0266
     31 H7          2.6576    1.2516   -1.4208 H         1 <0>         0.0266
     32 H8         -0.2242    2.3085    1.3035 H         1 <0>         0.0266
     33 H9          0.5203    1.0902    0.2666 H         1 <0>         0.0266
     34 H10         4.7199   -0.0481   -1.6665 H         1 <0>         0.0265
     35 H11         5.3416    0.5599   -0.1421 H         1 <0>         0.0265
     36 H12        -1.0511    1.6443   -1.5723 H         1 <0>         0.0265
     37 H13        -1.8096    2.8686   -0.5580 H         1 <0>         0.0265
     38 H14         1.7778   -0.6586   -0.5994 H         1 <0>         0.0276
     39 H15         2.7448   -1.6946   -1.6274 H         1 <0>         0.0276
     40 H16        -3.3546    0.4965   -1.7688 H         1 <0>         0.0276
     41 H17        -4.0299    1.7386   -0.7284 H         1 <0>         0.0276
     42 H18         4.5698   -1.7233    0.0831 H         1 <0>         0.0266
     43 H19         3.6291   -0.6711    1.1232 H         1 <0>         0.0266
     44 H20        -2.4288    1.0802    1.0939 H         1 <0>         0.0266
     45 H21        -1.7218   -0.1245    0.0208 H         1 <0>         0.0266
     46 H22         0.8674   -3.4880   -1.6739 H         1 <0>         0.0240
     47 H23        -0.0931   -2.3324   -0.7418 H         1 <0>         0.0240
     48 H24         0.1271   -3.9753   -0.1363 H         1 <0>         0.0240
     49 H25         3.2348   -4.1379   -0.8905 H         1 <0>         0.0240
     50 H26         3.7481   -3.7063    0.7501 H         1 <0>         0.0240
     51 H27         2.3910   -4.7985    0.5195 H         1 <0>         0.0240
     52 H28        -5.7128   -0.5278   -1.9922 H         1 <0>         0.0240
     53 H29        -6.6365   -0.8974   -0.5250 H         1 <0>         0.0240
     54 H30        -6.3045    0.7798   -0.9605 H         1 <0>         0.0240
     55 H31        -3.7140   -1.9564   -1.2717 H         1 <0>         0.0240
     56 H32        -3.1294   -1.8583    0.3982 H         1 <0>         0.0240
     57 H33        -4.7503   -2.4572    0.0732 H         1 <0>         0.0240
     58 H34         3.7537    4.5153    0.4752 H         1 <0>         0.2098
     59 H35         0.3426   -1.1351    2.5313 H         1 <0>         0.2951
     60 H36        -5.6760    1.4585    2.3887 H         1 <0>         0.2951
@<TRIPOS>BOND
     1    1    6 1
     2    1   58 1
     3    2   23 1
     4    2   59 1
     5    3   24 1
     6    3   60 1
     7    4   23 2
     8    5   24 2
     9    6    7 1
    10    6    8 1
    11    6   25 1
    12    7    9 1
    13    7   26 1
    14    7   27 1
    15    8   10 1
    16    8   28 1
    17    8   29 1
    18    9   11 1
    19    9   30 1
    20    9   31 1
    21   10   12 1
    22   10   32 1
    23   10   33 1
    24   11   15 1
    25   11   34 1
    26   11   35 1
    27   12   16 1
    28   12   36 1
    29   12   37 1
    30   13   17 1
    31   13   19 1
    32   13   20 1
    33   13   23 1
    34   14   18 1
    35   14   21 1
    36   14   22 1
    37   14   24 1
    38   15   17 1
    39   15   42 1
    40   15   43 1
    41   16   18 1
    42   16   44 1
    43   16   45 1
    44   17   38 1
    45   17   39 1
    46   18   40 1
    47   18   41 1
    48   19   46 1
    49   19   47 1
    50   19   48 1
    51   20   49 1
    52   20   50 1
    53   20   51 1
    54   21   52 1
    55   21   53 1
    56   21   54 1
    57   22   55 1
    58   22   56 1
    59   22   57 1
