@<TRIPOS>MOLECULE
DB11611
   65    69     0     0     0
SMALL
USER_CHARGES

@<TRIPOS>ATOM
      1 Cl1         1.6363    0.3056   -1.9760 Cl        1 <0>        -0.0824
      2 Cl2         0.0753   -3.9055    1.0672 Cl        1 <0>        -0.0827
      3 S1          3.7766    3.1179    0.6252 S.o2      1 <0>        -0.0059
      4 O1         -4.6775    3.0949   -1.0663 O.2       1 <0>        -0.2700
      5 O2          2.0508   -3.1165   -1.7342 O.2       1 <0>        -0.2701
      6 O3         -7.8252   -1.4218   -1.5711 O.3       1 <0>        -0.4629
      7 O4          3.3548   -4.4968    1.2459 O.3       1 <0>        -0.4793
      8 O5          5.4360   -4.8460    0.4353 O.2       1 <0>        -0.2489
      9 O6          2.6877    2.5229    1.3881 O.2       1 <0>        -0.1696
     10 O7          3.4823    4.1005   -0.4081 O.2       1 <0>        -0.1696
     11 N1         -3.2227    1.5281   -0.1188 N.am      1 <0>        -0.2929
     12 N2          3.0612   -2.1540    0.1177 N.am      1 <0>        -0.2980
     13 C1         -1.0171    1.5863   -1.1837 C.3       1 <0>        -0.0101
     14 C2         -2.0313    2.3455   -0.3370 C.3       1 <0>         0.0194
     15 C3         -0.7334    0.2242   -0.6063 C.ar      1 <0>        -0.0221
     16 C4         -2.9979    0.2416    0.5583 C.3       1 <0>         0.0404
     17 C5         -1.6858   -0.4178    0.2056 C.ar      1 <0>        -0.0241
     18 C6          0.4650   -0.4311   -0.9202 C.ar      1 <0>         0.0580
     19 C7         -1.4059   -1.6941    0.7154 C.ar      1 <0>        -0.0376
     20 C8          0.7290   -1.7022   -0.4111 C.ar      1 <0>         0.0735
     21 C9         -4.4749    2.0217   -0.4999 C.2       1 <0>         0.2470
     22 C10        -0.2042   -2.3320    0.4086 C.ar      1 <0>         0.0548
     23 C11         4.3679   -2.7383   -0.0818 C.3       1 <0>         0.1244
     24 C12        -5.6630    1.2070   -0.2016 C.ar      1 <0>         0.0404
     25 C13         1.9807   -2.3877   -0.7343 C.2       1 <0>         0.2476
     26 C14         5.4699   -1.8363    0.4892 C.3       1 <0>         0.0013
     27 C15         5.4738   -0.4543   -0.1184 C.ar      1 <0>        -0.0433
     28 C16        -6.1051    0.2728   -1.1431 C.ar      1 <0>        -0.0067
     29 C17        -6.3278    1.3799    1.0151 C.ar      1 <0>        -0.0488
     30 C18         4.7183    0.5649    0.4614 C.ar      1 <0>        -0.0336
     31 C19        -7.2355   -0.4661   -0.7991 C.ar      1 <0>         0.1355
     32 C20         4.4519   -4.1222    0.5454 C.2       1 <0>         0.3256
     33 C21         4.7221    1.8416   -0.1002 C.ar      1 <0>         0.0881
     34 C22        -7.9252   -0.3237    0.4006 C.ar      1 <0>         0.0202
     35 C23         6.2329   -0.1967   -1.2598 C.ar      1 <0>        -0.0584
     36 C24        -7.4628    0.6213    1.3331 C.ar      1 <0>        -0.0503
     37 C25         5.4813    2.0992   -1.2416 C.ar      1 <0>        -0.0369
     38 C26         6.2368    1.0801   -1.8216 C.ar      1 <0>        -0.0597
     39 C27        -8.9964   -1.2537    0.3426 C.2       1 <0>        -0.0161
     40 C28        -8.8902   -1.8925   -0.8712 C.2       1 <0>         0.0931
     41 C29         4.8798    3.8722    1.7988 C.3       1 <0>         0.0596
     42 H1         -0.1136    2.2031   -1.2286 H         1 <0>         0.0329
     43 H2         -1.4017    1.4585   -2.2030 H         1 <0>         0.0329
     44 H3         -1.6169    2.5863    0.6500 H         1 <0>         0.0468
     45 H4         -2.2881    3.2919   -0.8237 H         1 <0>         0.0468
     46 H5         -3.8131   -0.4513    0.3346 H         1 <0>         0.0514
     47 H6         -3.0125    0.4523    1.6345 H         1 <0>         0.0514
     48 H7         -2.1391   -2.1849    1.3525 H         1 <0>         0.0636
     49 H8          4.5082   -2.8746   -1.1614 H         1 <0>         0.0618
     50 H9          5.3605   -1.7496    1.5794 H         1 <0>         0.0337
     51 H10         6.4539   -2.3000    0.3380 H         1 <0>         0.0337
     52 H11         2.9033   -1.6039    0.9573 H         1 <0>         0.1498
     53 H12        -5.6004    0.1256   -2.0913 H         1 <0>         0.0662
     54 H13        -5.9680    2.1115    1.7355 H         1 <0>         0.0625
     55 H14         4.1393    0.3615    1.3583 H         1 <0>         0.0639
     56 H15         6.8238   -0.9833   -1.7216 H         1 <0>         0.0620
     57 H16        -7.9690    0.7667    2.2826 H         1 <0>         0.0625
     58 H17         5.5046    3.0874   -1.6922 H         1 <0>         0.0636
     59 H18         6.8287    1.2807   -2.7098 H         1 <0>         0.0618
     60 H19        -9.7524   -1.4358    1.0933 H         1 <0>         0.0655
     61 H20         4.3459    4.6892    2.2889 H         1 <0>         0.0468
     62 H21         5.1773    3.1256    2.5375 H         1 <0>         0.0468
     63 H22         5.7501    4.2621    1.2679 H         1 <0>         0.0468
     64 H23        -9.4645   -2.6657   -1.3601 H         1 <0>         0.1029
     65 H24         3.4551   -5.3922    1.6338 H         1 <0>         0.2951
@<TRIPOS>BOND
     1    1   18 1
     2    2   22 1
     3    3    9 2
     4    3   10 2
     5    3   33 1
     6    3   41 1
     7    4   21 2
     8    5   25 2
     9    6   31 1
    10    6   40 1
    11    7   32 1
    12    7   65 1
    13    8   32 2
    14   11   14 1
    15   11   16 1
    16   11   21 am
    17   12   23 1
    18   12   25 am
    19   12   52 1
    20   13   14 1
    21   13   15 1
    22   13   42 1
    23   13   43 1
    24   14   44 1
    25   14   45 1
    26   15   17 ar
    27   15   18 ar
    28   16   17 1
    29   16   46 1
    30   16   47 1
    31   17   19 ar
    32   18   20 ar
    33   19   22 ar
    34   19   48 1
    35   20   22 ar
    36   20   25 1
    37   21   24 1
    38   23   26 1
    39   23   32 1
    40   23   49 1
    41   24   28 ar
    42   24   29 ar
    43   26   27 1
    44   26   50 1
    45   26   51 1
    46   27   30 ar
    47   27   35 ar
    48   28   31 ar
    49   28   53 1
    50   29   36 ar
    51   29   54 1
    52   30   33 ar
    53   30   55 1
    54   31   34 ar
    55   33   37 ar
    56   34   36 ar
    57   34   39 1
    58   35   38 ar
    59   35   56 1
    60   36   57 1
    61   37   38 ar
    62   37   58 1
    63   38   59 1
    64   39   40 2
    65   39   60 1
    66   40   64 1
    67   41   61 1
    68   41   62 1
    69   41   63 1
