@<TRIPOS>MOLECULE
DB11967
   42    44     0     0     0
SMALL
USER_CHARGES

@<TRIPOS>ATOM
      1 Br1        -7.5121   -2.3861    0.6490 Br        1 <0>        -0.0502
      2 F1         -2.9916    1.4957   -0.8414 F         1 <0>        -0.2012
      3 F2         -2.8965   -2.9948   -1.7000 F         1 <0>        -0.2035
      4 O1          3.1222   -2.0882    0.3376 O.3       1 <0>        -0.2773
      5 O2          0.5024   -1.8522    0.8606 O.2       1 <0>        -0.2680
      6 O3          4.6415   -4.2689   -0.4806 O.3       1 <0>        -0.3927
      7 N1          0.7142    4.0553   -0.1103 N.pl3     1 <0>        -0.3331
      8 N2         -1.6899   -0.8932   -0.3307 N.pl3     1 <0>        -0.3094
      9 N3         -1.4419    4.0262   -0.6489 N.2       1 <0>        -0.2328
     10 N4          2.4398   -0.8867    0.0638 N.am      1 <0>        -0.1904
     11 C1          0.3518    2.7328   -0.0989 C.2       1 <0>         0.0720
     12 C2         -0.9981    2.7409   -0.4382 C.2       1 <0>         0.1259
     13 C3         -0.9934    0.3370   -0.2510 C.2       1 <0>         0.0816
     14 C4          0.3616    0.3610    0.0872 C.2       1 <0>         0.0647
     15 C5          1.0674    1.5658    0.1710 C.2       1 <0>        -0.0219
     16 C6         -1.6915    1.5214   -0.5178 C.2       1 <0>         0.1724
     17 C7         -0.3908    4.7879   -0.4441 C.cat     1 <0>         0.0969
     18 C8          2.0234    4.5927    0.1764 C.3       1 <0>         0.0133
     19 C9          1.0859   -0.8743    0.3636 C.2       1 <0>         0.2686
     20 C10        -3.0327   -1.2390   -0.1062 C.ar      1 <0>         0.0671
     21 C11        -3.6147   -2.2992   -0.8068 C.ar      1 <0>         0.1455
     22 C12        -3.7949   -0.5234    0.8214 C.ar      1 <0>        -0.0367
     23 C13        -4.9480   -2.6411   -0.5816 C.ar      1 <0>        -0.0106
     24 C14        -5.1282   -0.8652    1.0465 C.ar      1 <0>        -0.0458
     25 C15        -5.7048   -1.9241    0.3452 C.ar      1 <0>         0.0207
     26 C16         4.4856   -1.9235   -0.0275 C.3       1 <0>         0.0963
     27 C17         5.2344   -3.2102    0.2618 C.3       1 <0>         0.0698
     28 H1          2.1115    1.6243    0.4564 H         1 <0>         0.0647
     29 H2         -1.1202   -1.6669   -0.6610 H         1 <0>         0.1523
     30 H3         -0.3730    5.8665   -0.5231 H         1 <0>         0.1029
     31 H4          2.0013    5.6811    0.0799 H         1 <0>         0.0456
     32 H5          2.2938    4.3159    1.1985 H         1 <0>         0.0456
     33 H6          2.7340    4.1710   -0.5389 H         1 <0>         0.0456
     34 H7         -3.3662    0.2877    1.4040 H         1 <0>         0.0637
     35 H8          2.9642   -0.1372   -0.3742 H         1 <0>         0.1828
     36 H9         -5.3820   -3.4685   -1.1368 H         1 <0>         0.0658
     37 H10        -5.7026   -0.3004    1.7765 H         1 <0>         0.0629
     38 H11         4.5407   -1.7003   -1.0999 H         1 <0>         0.0606
     39 H12         4.9302   -1.0987    0.5410 H         1 <0>         0.0606
     40 H13         5.1752   -3.4722    1.3228 H         1 <0>         0.0581
     41 H14         6.2857   -3.1271   -0.0268 H         1 <0>         0.0581
     42 H15         3.7065   -4.3217   -0.2182 H         1 <0>         0.2095
@<TRIPOS>BOND
     1    1   25 1
     2    2   16 1
     3    3   21 1
     4    4   10 1
     5    4   26 1
     6    5   19 2
     7    6   27 1
     8    6   42 1
     9    7   11 1
    10    7   17 2
    11    7   18 1
    12    8   13 1
    13    8   20 1
    14    8   29 1
    15    9   12 2
    16    9   17 1
    17   10   19 am
    18   10   35 1
    19   11   12 1
    20   11   15 2
    21   12   16 2
    22   13   14 2
    23   13   16 1
    24   14   15 1
    25   14   19 1
    26   15   28 1
    27   17   30 1
    28   18   31 1
    29   18   32 1
    30   18   33 1
    31   20   21 ar
    32   20   22 ar
    33   21   23 ar
    34   22   24 ar
    35   22   34 1
    36   23   25 ar
    37   23   36 1
    38   24   25 ar
    39   24   37 1
    40   26   27 1
    41   26   38 1
    42   26   39 1
    43   27   40 1
    44   27   41 1
