@<TRIPOS>MOLECULE
DB11176
   98    99     0     0     0
SMALL
USER_CHARGES

@<TRIPOS>ATOM
      1 O1         14.8658    2.4638    0.0077 O.3       1 <0>        -0.3914
      2 O2        -15.2161   -1.6317    0.1719 O.3       1 <0>        -0.3914
      3 C1         11.1067    1.9529    0.1540 C.3       1 <0>        -0.0076
      4 C2        -12.5240    0.9407   -0.5689 C.3       1 <0>        -0.0076
      5 C3         12.4738    2.5645   -0.2515 C.3       1 <0>        -0.0174
      6 C4        -13.9256    0.3576   -0.2483 C.3       1 <0>        -0.0174
      7 C5         13.6424    1.8649    0.4242 C.3       1 <0>         0.0597
      8 C6        -13.9072   -1.1581   -0.1302 C.3       1 <0>         0.0597
      9 C7         11.1472    0.4066    0.1332 C.2       1 <0>        -0.0426
     10 C8        -11.4239    0.2861    0.2996 C.2       1 <0>        -0.0426
     11 C9         13.6637    0.3946    0.0291 C.3       1 <0>        -0.0053
     12 C10       -12.9690   -1.5779    0.9933 C.3       1 <0>        -0.0053
     13 C11        12.3108   -0.2864    0.0499 C.2       1 <0>        -0.0665
     14 C12       -11.6465   -0.8401    1.0231 C.2       1 <0>        -0.0665
     15 C13        10.0708    2.5220   -0.8458 C.3       1 <0>        -0.0557
     16 C14        10.7403    2.4420    1.5738 C.3       1 <0>        -0.0557
     17 C15       -12.2127    0.7034   -2.0642 C.3       1 <0>        -0.0557
     18 C16       -12.6296    2.4656   -0.3237 C.3       1 <0>        -0.0557
     19 C17         9.8577   -0.2566    0.2349 C.2       1 <0>        -0.0579
     20 C18       -10.1271    0.9426    0.2699 C.2       1 <0>        -0.0579
     21 C19        12.4397   -1.7902   -0.0288 C.3       1 <0>        -0.0431
     22 C20       -10.6492   -1.5148    1.9363 C.3       1 <0>        -0.0431
     23 C21         9.5454   -1.3623   -0.4594 C.2       1 <0>        -0.0586
     24 C22        -8.9649    0.2721    0.2175 C.2       1 <0>        -0.0586
     25 C23         8.2725   -2.0824   -0.4173 C.2       1 <0>        -0.0504
     26 C24        -7.6265    0.8620    0.1814 C.2       1 <0>        -0.0504
     27 C25         8.3208   -3.5915   -0.3978 C.3       1 <0>        -0.0397
     28 C26        -7.5306    2.3705    0.1964 C.3       1 <0>        -0.0397
     29 C27         7.0699   -1.4704   -0.3647 C.2       1 <0>        -0.0588
     30 C28        -6.4829    0.1451    0.1287 C.2       1 <0>        -0.0588
     31 C29         5.7498   -2.0672   -0.3194 C.2       1 <0>        -0.0613
     32 C30        -5.1142    0.6279    0.0897 C.2       1 <0>        -0.0613
     33 C31         4.6055   -1.3651   -0.2682 C.2       1 <0>        -0.0588
     34 C32        -4.0574   -0.2015    0.0380 C.2       1 <0>        -0.0588
     35 C33         3.2425   -1.9053   -0.2384 C.2       1 <0>        -0.0504
     36 C34        -2.6479    0.1893   -0.0010 C.2       1 <0>        -0.0504
     37 C35         3.0943   -3.4059   -0.2455 C.3       1 <0>        -0.0397
     38 C36        -2.3263    1.6642   -0.0159 C.3       1 <0>        -0.0397
     39 C37         2.2141   -1.0315   -0.1869 C.2       1 <0>        -0.0588
     40 C38        -1.6325   -0.6992   -0.0525 C.2       1 <0>        -0.0588
     41 C39         0.7956   -1.3325   -0.1457 C.2       1 <0>        -0.0615
     42 C40        -0.2078   -0.4398   -0.0947 C.2       1 <0>        -0.0615
     43 H1         12.6118    2.5029   -1.3411 H         1 <0>         0.0298
     44 H2         12.5031    3.6387   -0.0250 H         1 <0>         0.0298
     45 H3        -14.6571    0.6606   -1.0094 H         1 <0>         0.0298
     46 H4        -14.3077    0.7783    0.6936 H         1 <0>         0.0298
     47 H5         13.5815    1.9626    1.5137 H         1 <0>         0.0596
     48 H6        -13.5984   -1.6224   -1.0731 H         1 <0>         0.0596
     49 H7         14.0955    0.2817   -0.9746 H         1 <0>         0.0335
     50 H8         14.3572   -0.1176    0.7087 H         1 <0>         0.0335
     51 H9        -13.4669   -1.4443    1.9633 H         1 <0>         0.0335
     52 H10       -12.7903   -2.6573    0.8982 H         1 <0>         0.0335
     53 H11        10.1144    3.6171   -0.8769 H         1 <0>         0.0238
     54 H12         9.0449    2.2504   -0.5729 H         1 <0>         0.0238
     55 H13        10.2542    2.1511   -1.8609 H         1 <0>         0.0238
     56 H14        11.3980    2.0095    2.3357 H         1 <0>         0.0238
     57 H15        10.8198    3.5330    1.6469 H         1 <0>         0.0238
     58 H16         9.7111    2.1810    1.8437 H         1 <0>         0.0238
     59 H17       -12.0931   -0.3614   -2.2921 H         1 <0>         0.0238
     60 H18       -11.2861    1.2058   -2.3654 H         1 <0>         0.0238
     61 H19       -13.0141    1.0939   -2.7018 H         1 <0>         0.0238
     62 H20       -13.5159    2.8802   -0.8194 H         1 <0>         0.0238
     63 H21       -11.7690    3.0124   -0.7241 H         1 <0>         0.0238
     64 H22       -12.7118    2.6931    0.7454 H         1 <0>         0.0238
     65 H23         9.1394    0.1653    0.9314 H         1 <0>         0.0621
     66 H24       -10.1295    2.0244    0.3340 H         1 <0>         0.0621
     67 H25        11.6738   -2.3237    0.5395 H         1 <0>         0.0275
     68 H26        12.4495   -2.1242   -1.0709 H         1 <0>         0.0275
     69 H27        13.3858   -2.1173    0.4191 H         1 <0>         0.0275
     70 H28       -11.1656   -1.9281    2.8113 H         1 <0>         0.0275
     71 H29        -9.9011   -0.8329    2.3482 H         1 <0>         0.0275
     72 H30       -10.1561   -2.3462    1.4231 H         1 <0>         0.0275
     73 H31        14.8360    3.4006    0.2664 H         1 <0>         0.2098
     74 H32       -15.8019   -1.3555   -0.5536 H         1 <0>         0.2098
     75 H33        10.2256   -1.7771   -1.1978 H         1 <0>         0.0620
     76 H34        -8.9642   -0.8113    0.1207 H         1 <0>         0.0620
     77 H35         9.3436   -3.9503   -0.2333 H         1 <0>         0.0278
     78 H36         7.7148   -4.0076    0.4139 H         1 <0>         0.0278
     79 H37         7.9803   -4.0010   -1.3547 H         1 <0>         0.0278
     80 H38        -8.0961    2.7898   -0.6447 H         1 <0>         0.0278
     81 H39        -7.9583    2.7625    1.1269 H         1 <0>         0.0278
     82 H40        -6.5329    2.7995    0.1176 H         1 <0>         0.0278
     83 H41         7.0585   -0.3797   -0.3720 H         1 <0>         0.0620
     84 H42        -6.5776   -0.9416    0.1152 H         1 <0>         0.0620
     85 H43         5.7116   -3.1516   -0.3432 H         1 <0>         0.0618
     86 H44        -4.9370    1.6937    0.1113 H         1 <0>         0.0618
     87 H45         4.6795   -0.2776   -0.2517 H         1 <0>         0.0620
     88 H46        -4.2357   -1.2762    0.0231 H         1 <0>         0.0620
     89 H47         3.5286   -3.8291   -1.1583 H         1 <0>         0.0278
     90 H48         2.0590   -3.7494   -0.2061 H         1 <0>         0.0278
     91 H49         3.6004   -3.8457    0.6213 H         1 <0>         0.0278
     92 H50        -2.8361    2.1501   -0.8566 H         1 <0>         0.0278
     93 H51        -2.6759    2.1313    0.9126 H         1 <0>         0.0278
     94 H52        -1.2777    1.9384   -0.1187 H         1 <0>         0.0278
     95 H53         2.4355    0.0363   -0.1768 H         1 <0>         0.0620
     96 H54        -1.8869   -1.7596   -0.0563 H         1 <0>         0.0620
     97 H55         0.5144   -2.3814   -0.1617 H         1 <0>         0.0618
     98 H56         0.1078    0.5977   -0.0752 H         1 <0>         0.0618
@<TRIPOS>BOND
     1    1    7 1
     2    1   73 1
     3    2    8 1
     4    2   74 1
     5    3    5 1
     6    3    9 1
     7    3   15 1
     8    3   16 1
     9    4    6 1
    10    4   10 1
    11    4   17 1
    12    4   18 1
    13    5    7 1
    14    5   43 1
    15    5   44 1
    16    6    8 1
    17    6   45 1
    18    6   46 1
    19    7   11 1
    20    7   47 1
    21    8   12 1
    22    8   48 1
    23    9   13 2
    24    9   19 1
    25   10   14 2
    26   10   20 1
    27   11   13 1
    28   11   49 1
    29   11   50 1
    30   12   14 1
    31   12   51 1
    32   12   52 1
    33   13   21 1
    34   14   22 1
    35   15   53 1
    36   15   54 1
    37   15   55 1
    38   16   56 1
    39   16   57 1
    40   16   58 1
    41   17   59 1
    42   17   60 1
    43   17   61 1
    44   18   62 1
    45   18   63 1
    46   18   64 1
    47   19   23 2
    48   19   65 1
    49   20   24 2
    50   20   66 1
    51   21   67 1
    52   21   68 1
    53   21   69 1
    54   22   70 1
    55   22   71 1
    56   22   72 1
    57   23   25 1
    58   23   75 1
    59   24   26 1
    60   24   76 1
    61   25   27 1
    62   25   29 2
    63   26   28 1
    64   26   30 2
    65   27   77 1
    66   27   78 1
    67   27   79 1
    68   28   80 1
    69   28   81 1
    70   28   82 1
    71   29   31 1
    72   29   83 1
    73   30   32 1
    74   30   84 1
    75   31   33 2
    76   31   85 1
    77   32   34 2
    78   32   86 1
    79   33   35 1
    80   33   87 1
    81   34   36 1
    82   34   88 1
    83   35   37 1
    84   35   39 2
    85   36   38 1
    86   36   40 2
    87   37   89 1
    88   37   90 1
    89   37   91 1
    90   38   92 1
    91   38   93 1
    92   38   94 1
    93   39   41 1
    94   39   95 1
    95   40   42 1
    96   40   96 1
    97   41   42 2
    98   41   97 1
    99   42   98 1
