@<TRIPOS>MOLECULE
DB11235
   43    44     0     0     0
SMALL
USER_CHARGES

@<TRIPOS>ATOM
      1 O1         -4.5323   -1.3568    0.8402 O.3       1 <0>        -0.4951
      2 N1          1.4570   -0.4767   -1.0249 N.pl3     1 <0>        -0.2941
      3 N2          1.6072    2.9364    0.4312 N.3       1 <0>        -0.3069
      4 N3          1.6495   -2.7371   -0.4253 N.ar      1 <0>        -0.2228
      5 N4          3.1039   -1.0736    0.5364 N.ar      1 <0>        -0.2228
      6 C1          1.8473    0.9095   -0.9270 C.3       1 <0>         0.0280
      7 C2          1.2004    1.5377    0.3007 C.3       1 <0>         0.0141
      8 C3          0.3580   -0.8330   -1.9239 C.3       1 <0>         0.0400
      9 C4         -0.9472   -0.9730   -1.1863 C.ar      1 <0>        -0.0299
     10 C5          2.0972   -1.4714   -0.2724 C.ar      1 <0>         0.2181
     11 C6          1.0179    3.5302    1.6307 C.3       1 <0>        -0.0130
     12 C7          1.2198    3.6946   -0.7577 C.3       1 <0>        -0.0130
     13 C8         -1.7685    0.1351   -1.0357 C.ar      1 <0>        -0.0536
     14 C9         -1.3096   -2.2082   -0.6681 C.ar      1 <0>        -0.0536
     15 C10        -2.9775    0.0056   -0.3521 C.ar      1 <0>        -0.0196
     16 C11        -2.5187   -2.3379    0.0155 C.ar      1 <0>        -0.0196
     17 C12        -3.3527   -1.2309    0.1733 C.ar      1 <0>         0.1201
     18 C13         2.2882   -3.6687    0.3129 C.ar      1 <0>         0.0326
     19 C14         3.6979   -2.0560    1.2449 C.ar      1 <0>         0.0326
     20 C15         3.3287   -3.3838    1.1733 C.ar      1 <0>        -0.0253
     21 C16        -5.3361   -0.1844    0.9653 C.3       1 <0>         0.0788
     22 H1          2.9400    1.0101   -0.8916 H         1 <0>         0.0477
     23 H2          1.5379    1.4167   -1.8462 H         1 <0>         0.0477
     24 H3          0.1109    1.4610    0.2615 H         1 <0>         0.0442
     25 H4          1.5144    0.9922    1.1992 H         1 <0>         0.0442
     26 H5          0.5837   -1.7522   -2.4818 H         1 <0>         0.0514
     27 H6          0.2422   -0.0750   -2.7104 H         1 <0>         0.0514
     28 H7         -0.0775    3.5393    1.5932 H         1 <0>         0.0391
     29 H8          1.3281    2.9798    2.5261 H         1 <0>         0.0391
     30 H9          1.3671    4.5604    1.7626 H         1 <0>         0.0391
     31 H10         1.8533    3.4590   -1.6182 H         1 <0>         0.0391
     32 H11         0.1678    3.5459   -1.0277 H         1 <0>         0.0391
     33 H12         1.3680    4.7685   -0.5896 H         1 <0>         0.0391
     34 H13        -1.4928    1.1000   -1.4521 H         1 <0>         0.0622
     35 H14        -0.7089   -3.0974   -0.8187 H         1 <0>         0.0622
     36 H15        -3.5778    0.9050   -0.2683 H         1 <0>         0.0654
     37 H16        -2.8110   -3.3060    0.4130 H         1 <0>         0.0654
     38 H17         1.9275   -4.6843    0.1898 H         1 <0>         0.0831
     39 H18         4.5056   -1.7356    1.8942 H         1 <0>         0.0831
     40 H19         3.8228   -4.1513    1.7537 H         1 <0>         0.0648
     41 H20        -4.8283    0.5913    1.5486 H         1 <0>         0.0660
     42 H21        -6.2348   -0.4668    1.5232 H         1 <0>         0.0660
     43 H22        -5.6683    0.1818   -0.0120 H         1 <0>         0.0660
@<TRIPOS>BOND
     1    1   17 1
     2    1   21 1
     3    2    6 1
     4    2    8 1
     5    2   10 1
     6    3    7 1
     7    3   11 1
     8    3   12 1
     9    4   10 ar
    10    4   18 ar
    11    5   10 ar
    12    5   19 ar
    13    6    7 1
    14    6   22 1
    15    6   23 1
    16    7   24 1
    17    7   25 1
    18    8    9 1
    19    8   26 1
    20    8   27 1
    21    9   13 ar
    22    9   14 ar
    23   11   28 1
    24   11   29 1
    25   11   30 1
    26   12   31 1
    27   12   32 1
    28   12   33 1
    29   13   15 ar
    30   13   34 1
    31   14   16 ar
    32   14   35 1
    33   15   17 ar
    34   15   36 1
    35   16   17 ar
    36   16   37 1
    37   18   20 ar
    38   18   38 1
    39   19   20 ar
    40   19   39 1
    41   20   40 1
    42   21   41 1
    43   21   42 1
    44   21   43 1
