@<TRIPOS>MOLECULE
DB11085
   14    14     0     0     0
SMALL
USER_CHARGES

@<TRIPOS>ATOM
      1 O1          2.6626   -0.4745   -0.0004 O.3       1 <0>        -0.5066
      2 O2         -1.9519   -1.6959   -0.0002 O.3       1 <0>        -0.5066
      3 C1          1.3491   -0.1185    0.0002 C.ar      1 <0>         0.1203
      4 C2         -0.9864   -0.7366    0.0004 C.ar      1 <0>         0.1203
      5 C3          0.3598   -1.1017    0.0003 C.ar      1 <0>         0.0213
      6 C4          0.9923    1.2300    0.0002 C.ar      1 <0>        -0.0199
      7 C5         -1.3432    0.6118    0.0001 C.ar      1 <0>        -0.0199
      8 C6         -0.3538    1.5951    0.0001 C.ar      1 <0>        -0.0549
      9 H1          0.6308   -2.1546    0.0002 H         1 <0>         0.0691
     10 H2          1.7584    2.0006   -0.0000 H         1 <0>         0.0654
     11 H3         -2.3884    0.9096   -0.0002 H         1 <0>         0.0654
     12 H4         -0.6317    2.6451   -0.0002 H         1 <0>         0.0620
     13 H5          2.7263   -1.4451   -0.0003 H         1 <0>         0.2921
     14 H6         -2.8240   -1.2652   -0.0002 H         1 <0>         0.2921
@<TRIPOS>BOND
     1    1    3 1
     2    1   13 1
     3    2    4 1
     4    2   14 1
     5    3    5 ar
     6    3    6 ar
     7    4    5 ar
     8    4    7 ar
     9    5    9 1
    10    6    8 ar
    11    6   10 1
    12    7    8 ar
    13    7   11 1
    14    8   12 1
