@<TRIPOS>MOLECULE
DB11304
   20    20     0     0     0
SMALL
USER_CHARGES

@<TRIPOS>ATOM
      1 O1         -0.8379    0.5338    0.4218 O.3       1 <0>        -0.4897
      2 O2         -3.6115    0.8290    0.6783 O.3       1 <0>        -0.3917
      3 C1         -1.7385   -0.4381   -0.1075 C.3       1 <0>         0.1126
      4 C2          0.4927    0.3010    0.2550 C.ar      1 <0>         0.1206
      5 C3         -3.0382    0.2459   -0.4856 C.3       1 <0>         0.0783
      6 C4          0.9692   -1.0085    0.1931 C.ar      1 <0>        -0.0199
      7 C5          1.3799    1.3718    0.1462 C.ar      1 <0>        -0.0199
      8 C6          2.3328   -1.2472    0.0221 C.ar      1 <0>        -0.0583
      9 C7          2.7436    1.1331   -0.0249 C.ar      1 <0>        -0.0583
     10 C8          3.2201   -0.1763   -0.0870 C.ar      1 <0>        -0.0615
     11 H1         -1.3401   -0.9136   -1.0124 H         1 <0>         0.0720
     12 H2         -1.9222   -1.1954    0.6631 H         1 <0>         0.0720
     13 H3         -3.7531   -0.4614   -0.9161 H         1 <0>         0.0591
     14 H4         -2.8594    1.0535   -1.2017 H         1 <0>         0.0591
     15 H5          0.3169   -1.8699    0.3011 H         1 <0>         0.0654
     16 H6          1.0145    2.3940    0.1937 H         1 <0>         0.0654
     17 H7          2.7054   -2.2666   -0.0198 H         1 <0>         0.0619
     18 H8          3.4343    1.9669   -0.1094 H         1 <0>         0.0619
     19 H9          4.2820   -0.3622   -0.2186 H         1 <0>         0.0618
     20 H10        -3.7908    0.1103    1.3084 H         1 <0>         0.2095
@<TRIPOS>BOND
     1    1    3 1
     2    1    4 1
     3    2    5 1
     4    2   20 1
     5    3    5 1
     6    3   11 1
     7    3   12 1
     8    4    6 ar
     9    4    7 ar
    10    5   13 1
    11    5   14 1
    12    6    8 ar
    13    6   15 1
    14    7    9 ar
    15    7   16 1
    16    8   10 ar
    17    8   17 1
    18    9   10 ar
    19    9   18 1
    20   10   19 1
