@<TRIPOS>MOLECULE
DB11073
   60    60     0     0     0
SMALL
USER_CHARGES

@<TRIPOS>ATOM
      1 N1         -8.6850   -0.0943   -0.2228 N.ar      1 <0>        -0.2038
      2 C1          1.3916    0.0941    0.3278 C.3       1 <0>        -0.0531
      3 C2          0.1287   -0.6759   -0.0707 C.3       1 <0>        -0.0531
      4 C3          2.6889   -0.6065   -0.0835 C.3       1 <0>        -0.0531
      5 C4         -1.2031    0.0023    0.2652 C.3       1 <0>        -0.0531
      6 C5          3.9146    0.2031    0.3479 C.3       1 <0>        -0.0531
      7 C6         -2.4267   -0.8022   -0.1777 C.3       1 <0>        -0.0531
      8 C7          5.2435   -0.4393   -0.0607 C.3       1 <0>        -0.0531
      9 C8         -3.7247   -0.0627    0.1536 C.3       1 <0>        -0.0529
     10 C9          6.4662    0.4068    0.3056 C.3       1 <0>        -0.0531
     11 C10        -4.9488   -0.8491   -0.3183 C.3       1 <0>        -0.0473
     12 C11         7.7591   -0.2468   -0.1900 C.3       1 <0>        -0.0531
     13 C12        -6.2438   -0.0952   -0.0176 C.3       1 <0>         0.0069
     14 C13         9.0141    0.5724    0.1253 C.3       1 <0>        -0.0533
     15 C14        -7.4585   -0.8639   -0.5247 C.3       1 <0>         0.1505
     16 C15        10.3085   -0.0908   -0.3471 C.3       1 <0>        -0.0559
     17 C16        11.5237    0.7552    0.0007 C.3       1 <0>        -0.0653
     18 C17        -9.1334    0.7873   -1.1271 C.ar      1 <0>         0.1712
     19 C18        -9.3080   -0.3039    0.9448 C.ar      1 <0>         0.1712
     20 C19       -10.2818    1.5228   -0.8710 C.ar      1 <0>         0.0021
     21 C20       -10.4605    0.4039    1.2548 C.ar      1 <0>         0.0021
     22 C21       -10.9492    1.3258    0.3340 C.ar      1 <0>        -0.0506
     23 H1          1.3867    0.2451    1.4144 H         1 <0>         0.0265
     24 H2          1.3585    1.0905   -0.1299 H         1 <0>         0.0265
     25 H3          0.1526   -1.6616    0.4113 H         1 <0>         0.0265
     26 H4          0.1609   -0.8611   -1.1521 H         1 <0>         0.0265
     27 H5          2.7294   -1.6039    0.3703 H         1 <0>         0.0265
     28 H6          2.7026   -0.7441   -1.1711 H         1 <0>         0.0265
     29 H7         -1.2523    0.1732    1.3477 H         1 <0>         0.0265
     30 H8         -1.2264    0.9898   -0.2120 H         1 <0>         0.0265
     31 H9          3.8542    1.2065   -0.0920 H         1 <0>         0.0265
     32 H10         3.9005    0.3339    1.4369 H         1 <0>         0.0265
     33 H11        -2.3716   -0.9841   -1.2577 H         1 <0>         0.0265
     34 H12        -2.4213   -1.7810    0.3164 H         1 <0>         0.0265
     35 H13         5.2360   -0.6087   -1.1448 H         1 <0>         0.0265
     36 H14         5.3276   -1.4253    0.4129 H         1 <0>         0.0265
     37 H15        -3.7883    0.1036    1.2358 H         1 <0>         0.0265
     38 H16        -3.7166    0.9240   -0.3255 H         1 <0>         0.0265
     39 H17         6.5104    0.5388    1.3931 H         1 <0>         0.0265
     40 H18         6.3685    1.4045   -0.1387 H         1 <0>         0.0265
     41 H19        -4.8734   -1.0308   -1.3974 H         1 <0>         0.0267
     42 H20        -4.9700   -1.8290    0.1739 H         1 <0>         0.0267
     43 H21         7.6968   -0.3982   -1.2749 H         1 <0>         0.0265
     44 H22         7.8567   -1.2411    0.2633 H         1 <0>         0.0265
     45 H23        -6.2121    0.8962   -0.4859 H         1 <0>         0.0326
     46 H24        -6.3326    0.0718    1.0627 H         1 <0>         0.0326
     47 H25         8.9224    1.5611   -0.3413 H         1 <0>         0.0265
     48 H26         9.0683    0.7382    1.2085 H         1 <0>         0.0265
     49 H27        -7.4147   -1.0250   -1.6081 H         1 <0>         0.1030
     50 H28        -7.5452   -1.8470   -0.0477 H         1 <0>         0.1030
     51 H29        10.2721   -0.2443   -1.4317 H         1 <0>         0.0263
     52 H30        10.4106   -1.0781    0.1178 H         1 <0>         0.0263
     53 H31        11.4654    1.7397   -0.4746 H         1 <0>         0.0230
     54 H32        11.6046    0.8999    1.0828 H         1 <0>         0.0230
     55 H33        12.4386    0.2644   -0.3457 H         1 <0>         0.0230
     56 H34        -8.5667    0.8980   -2.0437 H         1 <0>         0.1376
     57 H35        -8.8757   -1.0318    1.6206 H         1 <0>         0.1376
     58 H36       -10.6517    2.2394   -1.5965 H         1 <0>         0.0677
     59 H37       -10.9709    0.2421    2.1983 H         1 <0>         0.0677
     60 H38       -11.8494    1.8913    0.5558 H         1 <0>         0.0621
@<TRIPOS>BOND
     1    1   15 1
     2    1   18 ar
     3    1   19 ar
     4    2    3 1
     5    2    4 1
     6    2   23 1
     7    2   24 1
     8    3    5 1
     9    3   25 1
    10    3   26 1
    11    4    6 1
    12    4   27 1
    13    4   28 1
    14    5    7 1
    15    5   29 1
    16    5   30 1
    17    6    8 1
    18    6   31 1
    19    6   32 1
    20    7    9 1
    21    7   33 1
    22    7   34 1
    23    8   10 1
    24    8   35 1
    25    8   36 1
    26    9   11 1
    27    9   37 1
    28    9   38 1
    29   10   12 1
    30   10   39 1
    31   10   40 1
    32   11   13 1
    33   11   41 1
    34   11   42 1
    35   12   14 1
    36   12   43 1
    37   12   44 1
    38   13   15 1
    39   13   45 1
    40   13   46 1
    41   14   16 1
    42   14   47 1
    43   14   48 1
    44   15   49 1
    45   15   50 1
    46   16   17 1
    47   16   51 1
    48   16   52 1
    49   17   53 1
    50   17   54 1
    51   17   55 1
    52   18   20 ar
    53   18   56 1
    54   19   21 ar
    55   19   57 1
    56   20   22 ar
    57   20   58 1
    58   21   22 ar
    59   21   59 1
    60   22   60 1
