@<TRIPOS>MOLECULE
DB11820
   32    33     0     0     0
SMALL
USER_CHARGES

@<TRIPOS>ATOM
      1 S1         -3.6832    0.9233   -0.7177 S.o2      1 <0>        -0.0277
      2 O1         -4.7219    0.8304    0.2898 O.2       1 <0>        -0.1742
      3 O2         -3.9859    1.3831   -2.0588 O.2       1 <0>        -0.1742
      4 O3          3.4832    0.1205    0.8031 O.3       1 <0>        -0.3992
      5 O4          6.8544    0.2052   -0.1227 O.3       1 <0>        -0.5735
      6 O5          5.8808    0.2331    1.8446 O.2       1 <0>         0.0446
      7 N1         -1.1050   -0.0349    0.7769 N.pl3     1 <0>        -0.2496
      8 N2         -0.0015   -0.0213   -0.0042 N.2       1 <0>        -0.1885
      9 N3          5.8017    0.1917    0.5812 N.pl3     1 <0>         0.1186
     10 C1         -2.1452   -1.0267    0.4440 C.3       1 <0>         0.0574
     11 C2         -2.8880   -0.6675   -0.8468 C.3       1 <0>         0.0855
     12 C3         -2.3708    1.9390   -0.0711 C.3       1 <0>         0.0830
     13 C4         -1.6817    1.2739    1.1149 C.3       1 <0>         0.0494
     14 C5         -1.5548   -2.4369    0.3493 C.3       1 <0>        -0.0434
     15 C6          1.1046    0.0357    0.6636 C.2       1 <0>         0.0878
     16 C7          2.4190    0.0600   -0.0023 C.2       1 <0>         0.1545
     17 C8          2.7219    0.0308   -1.3097 C.2       1 <0>        -0.0078
     18 C9          4.1359    0.0777   -1.3470 C.2       1 <0>         0.0595
     19 C10         4.5512    0.1314   -0.0368 C.2       1 <0>         0.4380
     20 H1         -2.8663   -1.0505    1.2722 H         1 <0>         0.0529
     21 H2         -2.2097   -0.6250   -1.7061 H         1 <0>         0.0519
     22 H3         -3.6751   -1.3963   -1.0666 H         1 <0>         0.0519
     23 H4         -2.8164    2.8940    0.2236 H         1 <0>         0.0516
     24 H5         -1.6662    2.1248   -0.8885 H         1 <0>         0.0516
     25 H6         -0.8943    1.9385    1.4908 H         1 <0>         0.0496
     26 H7         -2.3901    1.1554    1.9444 H         1 <0>         0.0496
     27 H8         -0.8596   -2.5347   -0.4916 H         1 <0>         0.0249
     28 H9         -1.0194   -2.6999    1.2684 H         1 <0>         0.0249
     29 H10        -2.3514   -3.1757    0.2083 H         1 <0>         0.0249
     30 H11         1.1207    0.0662    1.7698 H         1 <0>         0.0883
     31 H12         2.0454   -0.0177   -2.1509 H         1 <0>         0.0658
     32 H13         4.7678    0.0724   -2.2240 H         1 <0>         0.0722
@<TRIPOS>BOND
     1    1    2 2
     2    1    3 2
     3    1   11 1
     4    1   12 1
     5    4   16 1
     6    4   19 1
     7    5    9 1
     8    6    9 2
     9    7    8 1
    10    7   10 1
    11    7   13 1
    12    8   15 2
    13    9   19 1
    14   10   11 1
    15   10   14 1
    16   10   20 1
    17   11   21 1
    18   11   22 1
    19   12   13 1
    20   12   23 1
    21   12   24 1
    22   13   25 1
    23   13   26 1
    24   14   27 1
    25   14   28 1
    26   14   29 1
    27   15   16 1
    28   15   30 1
    29   16   17 2
    30   17   18 1
    31   17   31 1
    32   18   19 2
    33   18   32 1
