@<TRIPOS>MOLECULE
DB11619
   47    50     0     0     0
SMALL
USER_CHARGES

@<TRIPOS>ATOM
      1 O1         -4.3017    0.7830    0.2957 O.3       1 <0>        -0.3757
      2 O2          6.4581    0.2919    0.6455 O.2       1 <0>        -0.2927
      3 C1         -1.9074    0.3453   -0.1703 C.3       1 <0>         0.0322
      4 C2         -0.9900   -0.7658    0.4017 C.3       1 <0>        -0.0214
      5 C3          0.2919   -0.9194   -0.4193 C.3       1 <0>        -0.0116
      6 C4         -3.0979    0.2441    0.8266 C.3       1 <0>         0.1353
      7 C5         -1.9348   -1.9454    0.5850 C.3       1 <0>        -0.0452
      8 C6         -3.2668   -1.2902    1.0120 C.3       1 <0>        -0.0115
      9 C7         -2.3981    0.0869   -1.6217 C.3       1 <0>        -0.0429
     10 C8          1.0724    0.4113   -0.3669 C.2       1 <0>        -0.0408
     11 C9         -1.1038    1.6212   -0.2294 C.2       1 <0>        -0.0736
     12 C10         1.1300   -2.1139    0.0478 C.3       1 <0>        -0.0419
     13 C11         0.2381    1.6237   -0.3362 C.2       1 <0>        -0.0613
     14 C12         2.4302    0.4323   -0.3259 C.2       1 <0>        -0.0402
     15 C13         2.4806   -2.0918   -0.6561 C.3       1 <0>        -0.0268
     16 C14         3.2137   -0.8160   -0.3266 C.2       1 <0>        -0.0406
     17 C15        -2.8283    0.8927    2.1256 C.1       1 <0>        -0.0701
     18 C16        -3.2216    1.2490   -2.1138 C.3       1 <0>        -0.0644
     19 C17         3.2828    1.6882   -0.3043 C.3       1 <0>        -0.0202
     20 C18         4.5213   -0.8657   -0.0206 C.2       1 <0>        -0.0158
     21 C19         4.4437    1.5914    0.6767 C.3       1 <0>         0.0139
     22 C20         5.2507    0.3448    0.4246 C.2       1 <0>         0.1567
     23 C21        -2.6091    1.4204    3.1813 C.1       1 <0>        -0.1163
     24 H1         -0.6661   -0.4851    1.4189 H         1 <0>         0.0316
     25 H2          0.0410   -1.1102   -1.4701 H         1 <0>         0.0352
     26 H3         -1.5743   -2.6449    1.3462 H         1 <0>         0.0270
     27 H4         -2.0649   -2.5072   -0.3464 H         1 <0>         0.0270
     28 H5         -4.0825   -1.6842    0.3935 H         1 <0>         0.0303
     29 H6         -3.5050   -1.5558    2.0491 H         1 <0>         0.0303
     30 H7         -2.9766   -0.8386   -1.7132 H         1 <0>         0.0272
     31 H8         -1.5462   -0.0222   -2.3029 H         1 <0>         0.0272
     32 H9         -1.6150    2.5779   -0.1706 H         1 <0>         0.0579
     33 H10         0.6124   -3.0517   -0.1855 H         1 <0>         0.0274
     34 H11         1.2719   -2.0873    1.1364 H         1 <0>         0.0274
     35 H12         0.7192    2.5942   -0.3729 H         1 <0>         0.0618
     36 H13         2.3417   -2.1619   -1.7425 H         1 <0>         0.0313
     37 H14         3.0554   -2.9742   -0.3500 H         1 <0>         0.0313
     38 H15        -4.2935    1.0561   -2.0011 H         1 <0>         0.0230
     39 H16        -3.0092    2.2327   -1.6954 H         1 <0>         0.0230
     40 H17        -3.0771    1.3447   -3.1979 H         1 <0>         0.0230
     41 H18        -5.0308    0.5419    0.8928 H         1 <0>         0.2114
     42 H19         3.6772    1.8466   -1.3174 H         1 <0>         0.0317
     43 H20         2.7179    2.5866   -0.0466 H         1 <0>         0.0317
     44 H21         5.0808   -1.7950   -0.0395 H         1 <0>         0.0655
     45 H22         4.0872    1.5689    1.7127 H         1 <0>         0.0348
     46 H23         5.0964    2.4625    0.5534 H         1 <0>         0.0348
     47 H24        -2.4139    1.8885    4.1176 H         1 <0>         0.1229
@<TRIPOS>BOND
     1    1    6 1
     2    1   41 1
     3    2   22 2
     4    3    4 1
     5    3    6 1
     6    3    9 1
     7    3   11 1
     8    4    5 1
     9    4    7 1
    10    4   24 1
    11    5   10 1
    12    5   12 1
    13    5   25 1
    14    6    8 1
    15    6   17 1
    16    7    8 1
    17    7   26 1
    18    7   27 1
    19    8   28 1
    20    8   29 1
    21    9   18 1
    22    9   30 1
    23    9   31 1
    24   10   13 1
    25   10   14 2
    26   11   13 2
    27   11   32 1
    28   12   15 1
    29   12   33 1
    30   12   34 1
    31   13   35 1
    32   14   16 1
    33   14   19 1
    34   15   16 1
    35   15   36 1
    36   15   37 1
    37   16   20 2
    38   17   23 3
    39   18   38 1
    40   18   39 1
    41   18   40 1
    42   19   21 1
    43   19   42 1
    44   19   43 1
    45   20   22 1
    46   20   44 1
    47   21   22 1
    48   21   45 1
    49   21   46 1
    50   23   47 1
