@<TRIPOS>MOLECULE
DB11502
   52    52     0     0     0
SMALL
USER_CHARGES

@<TRIPOS>ATOM
      1 O1         -0.8621    1.6989    0.6050 O.3       1 <0>        -0.4611
      2 O2         -1.2179    1.1664    2.8162 O.2       1 <0>        -0.2450
      3 N1          2.0565    0.4961   -0.8360 N.3       1 <0>        -0.3022
      4 N2         -6.6286   -0.6588   -0.0879 N.pl3     1 <0>        -0.3580
      5 C1          3.3839    0.9818   -0.4781 C.3       1 <0>        -0.0011
      6 C2          2.1520   -0.6056   -1.7954 C.3       1 <0>        -0.0011
      7 C3          1.2421    1.5804   -1.3874 C.3       1 <0>         0.0020
      8 C4          4.2071   -0.1394    0.1535 C.3       1 <0>        -0.0405
      9 C5          0.7580   -1.1093   -2.1655 C.3       1 <0>        -0.0405
     10 C6          1.0868    2.6998   -0.3630 C.3       1 <0>        -0.0057
     11 C7          3.5473   -0.6561    1.4326 C.3       1 <0>        -0.0548
     12 C8          0.0159   -1.6346   -0.9361 C.3       1 <0>        -0.0548
     13 C9          0.4309    2.1989    0.9167 C.3       1 <0>         0.0940
     14 C10         4.3423   -1.7966    2.0482 C.3       1 <0>        -0.0652
     15 C11        -1.3858   -2.1053   -1.2900 C.3       1 <0>        -0.0652
     16 C12        -1.5834    1.2100    1.6517 C.2       1 <0>         0.3392
     17 C13        -2.9085    0.7196    1.1952 C.ar      1 <0>         0.0591
     18 C14        -3.5061   -0.3201    1.8777 C.ar      1 <0>        -0.0460
     19 C15        -3.5009    1.3185    0.1023 C.ar      1 <0>        -0.0460
     20 C16        -4.7504   -0.7814    1.4484 C.ar      1 <0>        -0.0403
     21 C17        -4.7454    0.8574   -0.3270 C.ar      1 <0>        -0.0403
     22 C18        -5.3703   -0.1926    0.3460 C.ar      1 <0>         0.0246
     23 H1          3.3521    1.7806    0.2680 H         1 <0>         0.0426
     24 H2          3.9174    1.3755   -1.3531 H         1 <0>         0.0426
     25 H3          2.6829   -1.4686   -1.3834 H         1 <0>         0.0426
     26 H4          2.6794   -0.2980   -2.7075 H         1 <0>         0.0426
     27 H5          0.2275    1.2649   -1.6416 H         1 <0>         0.0428
     28 H6          1.6900    1.9874   -2.3034 H         1 <0>         0.0428
     29 H7          4.4334   -0.9530   -0.5423 H         1 <0>         0.0277
     30 H8          5.1876    0.2786    0.4199 H         1 <0>         0.0277
     31 H9          0.8880   -1.9475   -2.8642 H         1 <0>         0.0277
     32 H10         0.1628   -0.3818   -2.7251 H         1 <0>         0.0277
     33 H11         2.0217    3.2250   -0.1486 H         1 <0>         0.0310
     34 H12         0.4276    3.4553   -0.8120 H         1 <0>         0.0310
     35 H13         3.4607    0.1572    2.1628 H         1 <0>         0.0263
     36 H14         2.5337   -1.0212    1.2345 H         1 <0>         0.0263
     37 H15        -0.0704   -0.8646   -0.1639 H         1 <0>         0.0263
     38 H16         0.5730   -2.4695   -0.4944 H         1 <0>         0.0263
     39 H17         1.0290    1.4237    1.4077 H         1 <0>         0.0698
     40 H18         0.3265    3.0412    1.6111 H         1 <0>         0.0698
     41 H19         3.8574   -2.1451    2.9655 H         1 <0>         0.0230
     42 H20         4.4117   -2.6433    1.3579 H         1 <0>         0.0230
     43 H21         5.3574   -1.4750    2.3018 H         1 <0>         0.0230
     44 H22        -1.8947   -2.4856   -0.3987 H         1 <0>         0.0230
     45 H23        -1.9837   -1.2839   -1.6976 H         1 <0>         0.0230
     46 H24        -1.3542   -2.9094   -2.0321 H         1 <0>         0.0230
     47 H25        -3.0315   -0.7891    2.7344 H         1 <0>         0.0626
     48 H26        -3.0410    2.1450   -0.4311 H         1 <0>         0.0626
     49 H27        -5.2266   -1.6011    1.9804 H         1 <0>         0.0636
     50 H28        -5.2195    1.3259   -1.1858 H         1 <0>         0.0636
     51 H29        -7.0823   -1.4196    0.4002 H         1 <0>         0.1423
     52 H30        -7.0788   -0.2320   -0.8866 H         1 <0>         0.1423
@<TRIPOS>BOND
     1    1   13 1
     2    1   16 1
     3    2   16 2
     4    3    5 1
     5    3    6 1
     6    3    7 1
     7    4   22 1
     8    4   51 1
     9    4   52 1
    10    5    8 1
    11    5   23 1
    12    5   24 1
    13    6    9 1
    14    6   25 1
    15    6   26 1
    16    7   10 1
    17    7   27 1
    18    7   28 1
    19    8   11 1
    20    8   29 1
    21    8   30 1
    22    9   12 1
    23    9   31 1
    24    9   32 1
    25   10   13 1
    26   10   33 1
    27   10   34 1
    28   11   14 1
    29   11   35 1
    30   11   36 1
    31   12   15 1
    32   12   37 1
    33   12   38 1
    34   13   39 1
    35   13   40 1
    36   14   41 1
    37   14   42 1
    38   14   43 1
    39   15   44 1
    40   15   45 1
    41   15   46 1
    42   16   17 1
    43   17   18 ar
    44   17   19 ar
    45   18   20 ar
    46   18   47 1
    47   19   21 ar
    48   19   48 1
    49   20   22 ar
    50   20   49 1
    51   21   22 ar
    52   21   50 1
