@<TRIPOS>MOLECULE
DB11689
   42    44     0     0     0
SMALL
USER_CHARGES

@<TRIPOS>ATOM
      1 Br1         7.5085   -2.3591   -0.7198 Br        1 <0>        -0.0502
      2 Cl1         2.7546   -3.2532    1.9535 Cl        1 <0>        -0.0816
      3 F1          3.0041    1.4735    0.8492 F         1 <0>        -0.2012
      4 O1         -3.1330   -2.0694   -0.3461 O.3       1 <0>        -0.2773
      5 O2         -0.5093   -1.8492   -0.8566 O.2       1 <0>        -0.2680
      6 O3         -4.6705   -4.2421    0.4594 O.3       1 <0>        -0.3927
      7 N1         -0.6852    4.0577    0.1196 N.pl3     1 <0>        -0.3331
      8 N2          1.6867   -0.9063    0.3368 N.pl3     1 <0>        -0.3105
      9 N3          1.4710    4.0141    0.6570 N.2       1 <0>        -0.2328
     10 N4         -2.4440   -0.8730   -0.0660 N.am      1 <0>        -0.1904
     11 C1         -0.3318    2.7327    0.1084 C.2       1 <0>         0.0720
     12 C2          1.0186    2.7318    0.4469 C.2       1 <0>         0.1259
     13 C3          0.9975    0.3280    0.2605 C.2       1 <0>         0.0816
     14 C4         -0.3575    0.3611   -0.0768 C.2       1 <0>         0.0647
     15 C5         -1.0554    1.5704   -0.1607 C.2       1 <0>        -0.0219
     16 C6          1.7038    1.5078    0.5265 C.2       1 <0>         0.1724
     17 C7          0.4250    4.7829    0.4525 C.cat     1 <0>         0.0969
     18 C8         -1.9906    4.6039   -0.1684 C.3       1 <0>         0.0133
     19 C9         -1.0888   -0.8688   -0.3597 C.2       1 <0>         0.2686
     20 C10         3.0274   -1.2596    0.1105 C.ar      1 <0>         0.0500
     21 C11         3.6316   -2.3210    0.7933 C.ar      1 <0>         0.0631
     22 C12         3.7724   -0.5297   -0.8216 C.ar      1 <0>        -0.0381
     23 C13         4.9650   -2.6483    0.5467 C.ar      1 <0>        -0.0276
     24 C14         5.1058   -0.8570   -1.0683 C.ar      1 <0>        -0.0459
     25 C15         5.7020   -1.9164   -0.3842 C.ar      1 <0>         0.0194
     26 C16        -4.4970   -1.8964    0.0131 C.3       1 <0>         0.0963
     27 C17        -5.2529   -3.1776   -0.2829 C.3       1 <0>         0.0698
     28 H1         -2.0988    1.6364   -0.4468 H         1 <0>         0.0647
     29 H2          1.1139   -1.6776    0.6667 H         1 <0>         0.1523
     30 H3          0.4145    5.8616    0.5309 H         1 <0>         0.1029
     31 H4         -1.9609    5.6922   -0.0729 H         1 <0>         0.0456
     32 H5         -2.2623    4.3281   -1.1903 H         1 <0>         0.0456
     33 H6         -2.7044    4.1877    0.5469 H         1 <0>         0.0456
     34 H7          3.3307    0.2805   -1.3959 H         1 <0>         0.0637
     35 H8         -2.9655   -0.1214    0.3718 H         1 <0>         0.1828
     36 H9          5.4299   -3.4746    1.0803 H         1 <0>         0.0644
     37 H10         5.6643   -0.2812   -1.8018 H         1 <0>         0.0629
     38 H11        -4.5556   -1.6756    1.0858 H         1 <0>         0.0606
     39 H12        -4.9335   -1.0673   -0.5554 H         1 <0>         0.0606
     40 H13        -5.1905   -3.4372   -1.3443 H         1 <0>         0.0581
     41 H14        -6.3050   -3.0881    0.0010 H         1 <0>         0.0581
     42 H15        -3.7346   -4.3003    0.2013 H         1 <0>         0.2095
@<TRIPOS>BOND
     1    1   25 1
     2    2   21 1
     3    3   16 1
     4    4   10 1
     5    4   26 1
     6    5   19 2
     7    6   27 1
     8    6   42 1
     9    7   11 1
    10    7   17 2
    11    7   18 1
    12    8   13 1
    13    8   20 1
    14    8   29 1
    15    9   12 2
    16    9   17 1
    17   10   19 am
    18   10   35 1
    19   11   12 1
    20   11   15 2
    21   12   16 2
    22   13   14 2
    23   13   16 1
    24   14   15 1
    25   14   19 1
    26   15   28 1
    27   17   30 1
    28   18   31 1
    29   18   32 1
    30   18   33 1
    31   20   21 ar
    32   20   22 ar
    33   21   23 ar
    34   22   24 ar
    35   22   34 1
    36   23   25 ar
    37   23   36 1
    38   24   25 ar
    39   24   37 1
    40   26   27 1
    41   26   38 1
    42   26   39 1
    43   27   40 1
    44   27   41 1
