@<TRIPOS>MOLECULE
DB11994
   39    41     0     0     0
SMALL
USER_CHARGES

@<TRIPOS>ATOM
      1 O1          1.5094   -2.0067    0.7163 O.3       1 <0>        -0.4253
      2 O2         -3.3217   -0.3096    0.6936 O.3       1 <0>        -0.4253
      3 O3         -0.8783   -1.0789    0.6852 O.2       1 <0>        -0.2864
      4 O4          0.8633    3.8665   -0.3487 O.2       1 <0>        -0.2866
      5 O5          5.8779   -0.0560    0.0884 O.3       1 <0>        -0.4771
      6 O6          5.6425    2.1682   -0.3166 O.2       1 <0>        -0.2451
      7 O7          1.3814   -2.3981   -1.5881 O.2       1 <0>        -0.2507
      8 O8         -3.4510   -0.7018   -1.6108 O.2       1 <0>        -0.2507
      9 C1          0.9662    0.3257    0.3105 C.ar      1 <0>         0.0755
     10 C2          1.4214    1.6179    0.0403 C.ar      1 <0>         0.0374
     11 C3         -1.4360    1.1695    0.2988 C.ar      1 <0>         0.0755
     12 C4         -0.9808    2.4616    0.0283 C.ar      1 <0>         0.0366
     13 C5         -0.4791    0.0542    0.4497 C.2       1 <0>         0.2016
     14 C6          0.4645    2.7330   -0.1116 C.2       1 <0>         0.1948
     15 C7          1.8837   -0.7223    0.4520 C.ar      1 <0>         0.1439
     16 C8          2.7938    1.8623   -0.0884 C.ar      1 <0>        -0.0360
     17 C9         -2.8083    0.9257    0.4292 C.ar      1 <0>         0.1431
     18 C10         3.7047    0.8149    0.0538 C.ar      1 <0>         0.0630
     19 C11        -1.8981    3.5100   -0.1117 C.ar      1 <0>        -0.0500
     20 C12         3.2507   -0.4746    0.3234 C.ar      1 <0>        -0.0045
     21 C13        -3.7191    1.9733    0.2891 C.ar      1 <0>        -0.0185
     22 C14        -3.2649    3.2628    0.0194 C.ar      1 <0>        -0.0576
     23 C15         5.1306    1.0694   -0.0795 C.2       1 <0>         0.3369
     24 C16         1.2769   -2.7816   -0.4306 C.2       1 <0>         0.3092
     25 C17        -3.6156   -1.0637   -0.4533 C.2       1 <0>         0.3092
     26 C18         0.8725   -4.1710   -0.0357 C.3       1 <0>         0.0336
     27 C19        -4.1723   -2.3994   -0.0582 C.3       1 <0>         0.0336
     28 H1          3.1533    2.8666   -0.2988 H         1 <0>         0.0633
     29 H2         -1.5694    4.5241   -0.3221 H         1 <0>         0.0625
     30 H3          3.9349   -1.3112    0.4410 H         1 <0>         0.0663
     31 H4         -4.7863    1.7933    0.3901 H         1 <0>         0.0654
     32 H5         -3.9759    4.0768   -0.0889 H         1 <0>         0.0619
     33 H6          0.7072   -4.7703   -0.9356 H         1 <0>         0.0342
     34 H7         -0.0575   -4.1356    0.5369 H         1 <0>         0.0342
     35 H8          1.6693   -4.6347    0.5509 H         1 <0>         0.0342
     36 H9          6.8374    0.1262   -0.0028 H         1 <0>         0.2954
     37 H10        -3.4329   -2.9473    0.5312 H         1 <0>         0.0342
     38 H11        -4.4001   -2.9779   -0.9581 H         1 <0>         0.0342
     39 H12        -5.0943   -2.2611    0.5114 H         1 <0>         0.0342
@<TRIPOS>BOND
     1    1   15 1
     2    1   24 1
     3    2   17 1
     4    2   25 1
     5    3   13 2
     6    4   14 2
     7    5   23 1
     8    5   36 1
     9    6   23 2
    10    7   24 2
    11    8   25 2
    12    9   10 ar
    13    9   13 1
    14    9   15 ar
    15   10   14 1
    16   10   16 ar
    17   11   12 ar
    18   11   13 1
    19   11   17 ar
    20   12   14 1
    21   12   19 ar
    22   15   20 ar
    23   16   18 ar
    24   16   28 1
    25   17   21 ar
    26   18   20 ar
    27   18   23 1
    28   19   22 ar
    29   19   29 1
    30   20   30 1
    31   21   22 ar
    32   21   31 1
    33   22   32 1
    34   24   26 1
    35   25   27 1
    36   26   33 1
    37   26   34 1
    38   26   35 1
    39   27   37 1
    40   27   38 1
    41   27   39 1
