@<TRIPOS>MOLECULE
DB11591
   71    74     0     0     0
SMALL
USER_CHARGES

@<TRIPOS>ATOM
      1 O1          6.2865   -2.0169    0.3341 O.3       1 <0>        -0.3783
      2 O2         -9.9119   -0.6865    1.7902 O.3       1 <0>        -0.4800
      3 O3         -7.7811   -1.3371    2.1398 O.2       1 <0>        -0.2500
      4 N1         -0.4975    0.8896    0.1715 N.3       1 <0>        -0.3020
      5 N2          4.8841    0.4986    0.6731 N.pl3     1 <0>        -0.3251
      6 N3          4.2075    2.0291   -0.7899 N.2       1 <0>        -0.2320
      7 C1          2.4096    0.5282    0.1570 C.3       1 <0>         0.0196
      8 C2          1.5915    0.6573   -1.1364 C.3       1 <0>        -0.0305
      9 C3          1.6731    1.2141    1.3170 C.3       1 <0>        -0.0305
     10 C4          0.1549    0.1694   -0.9307 C.3       1 <0>        -0.0005
     11 C5          0.2334    0.7061    1.4331 C.3       1 <0>        -0.0005
     12 C6          3.8305    1.0427   -0.0074 C.cat     1 <0>         0.1140
     13 C7         -1.8856    0.4519    0.3170 C.3       1 <0>         0.0029
     14 C8         -2.7935    1.1676   -0.6839 C.3       1 <0>        -0.0149
     15 C9          6.0164    1.1793    0.3055 C.ar      1 <0>         0.0689
     16 C10         4.8209   -0.5976    1.6134 C.3       1 <0>         0.0483
     17 C11         5.5677    2.1290   -0.6082 C.ar      1 <0>         0.0893
     18 C12        -4.2318    0.7417   -0.5292 C.ar      1 <0>        -0.0461
     19 C13         5.0032   -1.9526    0.9427 C.3       1 <0>         0.0656
     20 C14         7.3536    1.0498    0.6824 C.ar      1 <0>        -0.0361
     21 C15         6.4945    3.0102   -1.1908 C.ar      1 <0>        -0.0342
     22 C16        -5.0746    1.4347    0.3397 C.ar      1 <0>        -0.0582
     23 C17        -4.7194   -0.3452   -1.2548 C.ar      1 <0>        -0.0582
     24 C18        -6.8925   -0.0461   -0.2425 C.ar      1 <0>        -0.0311
     25 C19        -8.3146   -0.4677   -0.0881 C.3       1 <0>         0.0868
     26 C20         8.2621    1.9351    0.0928 C.ar      1 <0>        -0.0597
     27 C21         7.8423    2.8984   -0.8272 C.ar      1 <0>        -0.0596
     28 C22        -6.4049    1.0408    0.4832 C.ar      1 <0>        -0.0573
     29 C23        -6.0497   -0.7392   -1.1114 C.ar      1 <0>        -0.0573
     30 C24        -9.2697    0.6907   -0.5235 C.3       1 <0>        -0.0456
     31 C25        -8.7329   -1.7158   -0.9358 C.3       1 <0>        -0.0456
     32 C26        -8.6272   -0.8642    1.3884 C.2       1 <0>         0.3148
     33 C27         6.4981   -3.2684   -0.3050 C.3       1 <0>         0.0449
     34 C28         7.8760   -3.2754   -0.9316 C.3       1 <0>        -0.0416
     35 H1          2.4530   -0.5461    0.3774 H         1 <0>         0.0380
     36 H2          2.0634    0.0782   -1.9400 H         1 <0>         0.0284
     37 H3          1.5736    1.7029   -1.4723 H         1 <0>         0.0284
     38 H4          1.6660    2.3016    1.1621 H         1 <0>         0.0284
     39 H5          2.1954    1.0420    2.2652 H         1 <0>         0.0284
     40 H6          0.1618   -0.9126   -0.7422 H         1 <0>         0.0427
     41 H7         -0.3830    0.3288   -1.8714 H         1 <0>         0.0427
     42 H8         -0.2563    1.2727    2.2346 H         1 <0>         0.0427
     43 H9          0.2362   -0.3500    1.7335 H         1 <0>         0.0427
     44 H10        -1.9774   -0.6395    0.2326 H         1 <0>         0.0430
     45 H11        -2.2522    0.7050    1.3217 H         1 <0>         0.0430
     46 H12        -2.4823    0.9743   -1.7173 H         1 <0>         0.0326
     47 H13        -2.7209    2.2554   -0.5512 H         1 <0>         0.0326
     48 H14         5.6109   -0.4354    2.3558 H         1 <0>         0.0515
     49 H15         3.8721   -0.5554    2.1539 H         1 <0>         0.0515
     50 H16         4.2315   -2.1128    0.1811 H         1 <0>         0.0577
     51 H17         4.9188   -2.7424    1.6981 H         1 <0>         0.0577
     52 H18         7.6859    0.3048    1.3959 H         1 <0>         0.0639
     53 H19         6.1783    3.7621   -1.9066 H         1 <0>         0.0639
     54 H20        -4.7052    2.2808    0.9129 H         1 <0>         0.0620
     55 H21        -4.0711   -0.8937   -1.9332 H         1 <0>         0.0620
     56 H22         9.3149    1.8712    0.3564 H         1 <0>         0.0618
     57 H23         8.5721    3.5724   -1.2686 H         1 <0>         0.0618
     58 H24        -7.0414    1.5908    1.1711 H         1 <0>         0.0621
     59 H25        -6.3752   -1.5900   -1.6997 H         1 <0>         0.0621
     60 H26       -10.3190    0.3734   -0.5187 H         1 <0>         0.0243
     61 H27        -9.1940    1.5528    0.1488 H         1 <0>         0.0243
     62 H28        -9.0317    1.0329   -1.5377 H         1 <0>         0.0243
     63 H29        -9.7826   -1.9769   -0.7529 H         1 <0>         0.0243
     64 H30        -8.6263   -1.5305   -2.0107 H         1 <0>         0.0243
     65 H31        -8.1424   -2.5997   -0.6667 H         1 <0>         0.0243
     66 H32         6.4232   -4.0774    0.4302 H         1 <0>         0.0557
     67 H33         5.7399   -3.4213   -1.0811 H         1 <0>         0.0557
     68 H34         8.0726   -4.2264   -1.4345 H         1 <0>         0.0252
     69 H35         8.6464   -3.1117   -0.1707 H         1 <0>         0.0252
     70 H36         7.9720   -2.4634   -1.6603 H         1 <0>         0.0252
     71 H37       -10.0462   -0.9682    2.7201 H         1 <0>         0.2951
@<TRIPOS>BOND
     1    1   19 1
     2    1   33 1
     3    2   32 1
     4    2   71 1
     5    3   32 2
     6    4   10 1
     7    4   11 1
     8    4   13 1
     9    5   12 1
    10    5   15 2
    11    5   16 1
    12    6   12 1
    13    6   17 2
    14    7    8 1
    15    7    9 1
    16    7   12 1
    17    7   35 1
    18    8   10 1
    19    8   36 1
    20    8   37 1
    21    9   11 1
    22    9   38 1
    23    9   39 1
    24   10   40 1
    25   10   41 1
    26   11   42 1
    27   11   43 1
    28   13   14 1
    29   13   44 1
    30   13   45 1
    31   14   18 1
    32   14   46 1
    33   14   47 1
    34   15   17 ar
    35   15   20 ar
    36   16   19 1
    37   16   48 1
    38   16   49 1
    39   17   21 ar
    40   18   22 ar
    41   18   23 ar
    42   19   50 1
    43   19   51 1
    44   20   26 ar
    45   20   52 1
    46   21   27 ar
    47   21   53 1
    48   22   28 ar
    49   22   54 1
    50   23   29 ar
    51   23   55 1
    52   24   25 1
    53   24   28 ar
    54   24   29 ar
    55   25   30 1
    56   25   31 1
    57   25   32 1
    58   26   27 ar
    59   26   56 1
    60   27   57 1
    61   28   58 1
    62   29   59 1
    63   30   60 1
    64   30   61 1
    65   30   62 1
    66   31   63 1
    67   31   64 1
    68   31   65 1
    69   33   34 1
    70   33   66 1
    71   33   67 1
    72   34   68 1
    73   34   69 1
    74   34   70 1
