@<TRIPOS>MOLECULE
DB11652
   60    65     0     0     0
SMALL
USER_CHARGES

@<TRIPOS>ATOM
      1 O1          4.9650    3.2034   -0.3397 O.3       1 <0>        -0.4631
      2 O2         -4.5452   -1.9512   -0.1891 O.3       1 <0>        -0.4556
      3 N1          3.1104    1.9878    0.2037 N.2       1 <0>        -0.2271
      4 N2          5.1953    0.9315   -0.3070 N.pl3     1 <0>        -0.2695
      5 N3          0.9613   -1.8701   -0.9222 N.pl3     1 <0>        -0.2989
      6 N4          3.9525   -4.4643    0.2830 N.ar      1 <0>        -0.2353
      7 N5          1.6724   -4.0447   -0.3740 N.ar      1 <0>        -0.2200
      8 N6         -6.6131    1.5940   -0.1380 N.pl3     1 <0>        -0.2202
      9 N7         -5.2112    2.6469    1.2292 N.2       1 <0>        -0.2148
     10 N8         -7.1377    2.8356    0.0140 N.2       1 <0>        -0.1536
     11 C1          2.7114    3.4070    0.1603 C.3       1 <0>         0.0950
     12 C2          4.0310    4.1629    0.1387 C.3       1 <0>         0.1171
     13 C3          1.8774    3.7399    1.3925 C.3       1 <0>        -0.0367
     14 C4          1.8989    3.6384   -1.1173 C.3       1 <0>        -0.0367
     15 C5          4.3638    1.9961   -0.1323 C.2       1 <0>         0.2828
     16 C6          4.8757   -0.4234   -0.1605 C.ar      1 <0>         0.0357
     17 C7          3.2687   -2.2327   -0.2687 C.ar      1 <0>         0.0422
     18 C8          3.5836   -0.8708   -0.4172 C.ar      1 <0>        -0.0279
     19 C9          5.8485   -1.3313    0.2429 C.ar      1 <0>        -0.0384
     20 C10         4.2426   -3.1595    0.1380 C.ar      1 <0>         0.0761
     21 C11         1.9969   -2.7450   -0.5094 C.ar      1 <0>         0.1339
     22 C12         5.5275   -2.6841    0.3884 C.ar      1 <0>        -0.0338
     23 C13        -0.4296   -1.8931   -0.7332 C.ar      1 <0>         0.0329
     24 C14        -2.3500   -2.5004    0.6008 C.ar      1 <0>        -0.0064
     25 C15        -0.9681   -2.4784    0.4126 C.ar      1 <0>        -0.0341
     26 C16        -3.1933   -1.9373   -0.3568 C.ar      1 <0>         0.1314
     27 C17        -1.2729   -1.3302   -1.6910 C.ar      1 <0>        -0.0370
     28 C18        -2.6548   -1.3522   -1.5030 C.ar      1 <0>        -0.0173
     29 C19         2.6833   -4.8359    0.0190 C.ar      1 <0>         0.1187
     30 C20        -2.9092   -3.1319    1.8329 C.3       1 <0>        -0.0362
     31 C21        -5.1989   -0.7528   -0.1415 C.2       1 <0>         0.1334
     32 C22        -4.7247    0.2737    0.5929 C.2       1 <0>         0.0250
     33 C23        -5.4369    1.5069    0.6153 C.2       1 <0>         0.1592
     34 C24        -6.4235   -0.6349   -0.9151 C.2       1 <0>        -0.0010
     35 C25        -7.0971    0.5263   -0.8959 C.2       1 <0>         0.0349
     36 C26        -6.2631    3.4147    0.8352 C.2       1 <0>         0.1390
     37 H1          4.3584    4.4887    1.1324 H         1 <0>         0.0722
     38 H2          4.0192    5.0322   -0.5260 H         1 <0>         0.0722
     39 H3          1.5876    4.6851   -1.2029 H         1 <0>         0.0254
     40 H4          2.4790    3.3845   -2.0120 H         1 <0>         0.0254
     41 H5          0.9984    3.0137   -1.1285 H         1 <0>         0.0254
     42 H6          2.4276    3.5204    2.3147 H         1 <0>         0.0254
     43 H7          1.5987    4.7990    1.4075 H         1 <0>         0.0254
     44 H8          0.9577    3.1445    1.4185 H         1 <0>         0.0254
     45 H9          6.1838    1.1246   -0.4388 H         1 <0>         0.1565
     46 H10         2.8281   -0.1793   -0.7725 H         1 <0>         0.0644
     47 H11         6.8640   -1.0030    0.4497 H         1 <0>         0.0637
     48 H12         6.3072   -3.3743    0.7054 H         1 <0>         0.0639
     49 H13         1.2542   -1.2320   -1.6571 H         1 <0>         0.1536
     50 H14        -0.3174   -2.9062    1.1715 H         1 <0>         0.0640
     51 H15        -0.8667   -0.8733   -2.5899 H         1 <0>         0.0637
     52 H16        -3.2974   -0.9185   -2.2646 H         1 <0>         0.0655
     53 H17         2.4560   -5.8883    0.1377 H         1 <0>         0.1048
     54 H18        -2.1290   -3.5956    2.4459 H         1 <0>         0.0279
     55 H19        -3.6250   -3.9174    1.5684 H         1 <0>         0.0279
     56 H20        -3.4128   -2.3802    2.4493 H         1 <0>         0.0279
     57 H21        -3.8214    0.1977    1.1880 H         1 <0>         0.0692
     58 H22        -6.7724   -1.4821   -1.4936 H         1 <0>         0.0669
     59 H23        -8.0153    0.6826   -1.4485 H         1 <0>         0.0832
     60 H24        -6.3994    4.4360    1.1579 H         1 <0>         0.1066
@<TRIPOS>BOND
     1    1   12 1
     2    1   15 1
     3    2   26 1
     4    2   31 1
     5    3   11 1
     6    3   15 2
     7    4   15 1
     8    4   16 1
     9    4   45 1
    10    5   21 1
    11    5   23 1
    12    5   49 1
    13    6   20 ar
    14    6   29 ar
    15    7   21 ar
    16    7   29 ar
    17    8   10 1
    18    8   33 1
    19    8   35 2
    20    9   33 2
    21    9   36 1
    22   10   36 2
    23   11   12 1
    24   11   13 1
    25   11   14 1
    26   12   37 1
    27   12   38 1
    28   13   42 1
    29   13   43 1
    30   13   44 1
    31   14   39 1
    32   14   40 1
    33   14   41 1
    34   16   18 ar
    35   16   19 ar
    36   17   18 ar
    37   17   20 ar
    38   17   21 ar
    39   18   46 1
    40   19   22 ar
    41   19   47 1
    42   20   22 ar
    43   22   48 1
    44   23   25 ar
    45   23   27 ar
    46   24   25 ar
    47   24   26 ar
    48   24   30 1
    49   25   50 1
    50   26   28 ar
    51   27   28 ar
    52   27   51 1
    53   28   52 1
    54   29   53 1
    55   30   54 1
    56   30   55 1
    57   30   56 1
    58   31   32 1
    59   31   34 2
    60   32   33 2
    61   32   57 1
    62   34   35 1
    63   34   58 1
    64   35   59 1
    65   36   60 1
