@<TRIPOS>MOLECULE
DB11157
   27    29     0     0     0
SMALL
USER_CHARGES

@<TRIPOS>ATOM
      1 O1          0.0276    2.4726    0.0011 O.2       1 <0>        -0.2864
      2 O2          2.5829    2.4729   -0.0001 O.3       1 <0>        -0.5060
      3 O3         -2.5199    2.6693    0.0001 O.3       1 <0>        -0.5060
      4 C1         -0.1328   -1.6944    0.0019 C.3       1 <0>        -0.0008
      5 C2          1.1697   -0.9425    0.0007 C.ar      1 <0>        -0.0287
      6 C3         -1.3737   -0.8445    0.0001 C.ar      1 <0>        -0.0287
      7 C4          1.2282    0.4551    0.0005 C.ar      1 <0>         0.0672
      8 C5         -1.3244    0.5534    0.0005 C.ar      1 <0>         0.0672
      9 C6         -0.0195    1.2490    0.0010 C.2       1 <0>         0.2007
     10 C7          2.3704   -1.6698    0.0002 C.ar      1 <0>        -0.0574
     11 C8         -2.6267   -1.4773   -0.0009 C.ar      1 <0>        -0.0574
     12 C9          2.4646    1.1143   -0.0002 C.ar      1 <0>         0.1279
     13 C10        -2.5066    1.3056    0.0003 C.ar      1 <0>         0.1279
     14 C11         3.6017   -1.0141   -0.0010 C.ar      1 <0>        -0.0580
     15 C12        -3.8040   -0.7290   -0.0016 C.ar      1 <0>        -0.0580
     16 C13         3.6480    0.3771   -0.0014 C.ar      1 <0>        -0.0194
     17 C14        -3.7432    0.6616   -0.0008 C.ar      1 <0>        -0.0194
     18 H1         -0.1573   -2.3369   -0.8877 H         1 <0>         0.0362
     19 H2         -0.1576   -2.3336    0.8937 H         1 <0>         0.0362
     20 H3          2.3503   -2.7571    0.0005 H         1 <0>         0.0621
     21 H4         -2.6902   -2.5630   -0.0011 H         1 <0>         0.0621
     22 H5          4.5229   -1.5893   -0.0015 H         1 <0>         0.0619
     23 H6         -4.7667   -1.2316   -0.0024 H         1 <0>         0.0619
     24 H7          4.6159    0.8716   -0.0021 H         1 <0>         0.0654
     25 H8         -4.6647    1.2380   -0.0013 H         1 <0>         0.0654
     26 H9          3.5235    2.7194   -0.0006 H         1 <0>         0.2922
     27 H10        -1.6183    3.0231    0.0022 H         1 <0>         0.2922
@<TRIPOS>BOND
     1    1    9 2
     2    2   12 1
     3    2   26 1
     4    3   13 1
     5    3   27 1
     6    4    5 1
     7    4    6 1
     8    4   18 1
     9    4   19 1
    10    5    7 ar
    11    5   10 ar
    12    6    8 ar
    13    6   11 ar
    14    7    9 1
    15    7   12 ar
    16    8    9 1
    17    8   13 ar
    18   10   14 ar
    19   10   20 1
    20   11   15 ar
    21   11   21 1
    22   12   16 ar
    23   13   17 ar
    24   14   16 ar
    25   14   22 1
    26   15   17 ar
    27   15   23 1
    28   16   24 1
    29   17   25 1
