@<TRIPOS>MOLECULE
DB11609
   47    48     0     0     0
SMALL
USER_CHARGES

@<TRIPOS>ATOM
      1 O1          0.8777   -0.1811    2.5767 O.2       1 <0>        -0.2961
      2 N1         -3.1148   -0.0149   -1.2342 N.3       1 <0>        -0.3083
      3 C1          0.5232    0.0983    0.1581 C.3       1 <0>         0.0798
      4 C2         -0.7097   -0.2077   -0.7663 C.3       1 <0>        -0.0197
      5 C3          1.8531   -0.5001   -0.3938 C.ar      1 <0>        -0.0297
      6 C4          0.6270    1.6490    0.2529 C.ar      1 <0>        -0.0297
      7 C5         -2.0682    0.3150   -0.2695 C.3       1 <0>        -0.0002
      8 C6          0.3370   -0.6063    1.5522 C.2       1 <0>         0.1478
      9 C7         -0.4423   -1.9213    1.5901 C.3       1 <0>         0.0042
     10 C8          2.9907   -0.2703    0.3196 C.ar      1 <0>        -0.0573
     11 C9          1.4343    2.2841   -0.6434 C.ar      1 <0>        -0.0573
     12 C10         1.7897   -1.2137   -1.5526 C.ar      1 <0>        -0.0573
     13 C11        -0.0965    2.2725    1.2258 C.ar      1 <0>        -0.0573
     14 C12         0.0167   -2.8375    2.7131 C.3       1 <0>        -0.0585
     15 C13        -4.4146    0.4645   -0.7642 C.3       1 <0>        -0.0130
     16 C14        -3.1583   -1.4581   -1.4699 C.3       1 <0>        -0.0130
     17 C15         4.1806   -0.8056   -0.1739 C.ar      1 <0>        -0.0615
     18 C16         1.5273    3.6734   -0.5588 C.ar      1 <0>        -0.0615
     19 C17         2.9795   -1.7491   -2.0458 C.ar      1 <0>        -0.0615
     20 C18        -0.0036    3.6618    1.3102 C.ar      1 <0>        -0.0615
     21 C19         4.1749   -1.5450   -1.3564 C.ar      1 <0>        -0.0617
     22 C20         0.8083    4.3621    0.4178 C.ar      1 <0>        -0.0617
     23 H1         -0.5364    0.2366   -1.7585 H         1 <0>         0.0293
     24 H2         -0.7727   -1.2865   -0.9141 H         1 <0>         0.0293
     25 H3         -2.0391    1.4064   -0.2085 H         1 <0>         0.0427
     26 H4         -2.3156   -0.0594    0.7268 H         1 <0>         0.0427
     27 H5         -0.2775   -2.4736    0.6622 H         1 <0>         0.0339
     28 H6         -1.5072   -1.7166    1.7088 H         1 <0>         0.0339
     29 H7          3.0186    0.3094    1.2354 H         1 <0>         0.0621
     30 H8          1.9759    1.7921   -1.4423 H         1 <0>         0.0621
     31 H9          0.9014   -1.4009   -2.1388 H         1 <0>         0.0621
     32 H10        -0.7451    1.7538    1.9222 H         1 <0>         0.0621
     33 H11        -0.5231   -3.7889    2.6748 H         1 <0>         0.0234
     34 H12         1.0889   -3.0460    2.6353 H         1 <0>         0.0234
     35 H13        -0.1660   -2.3819    3.6918 H         1 <0>         0.0234
     36 H14        -4.3924    1.5488   -0.6069 H         1 <0>         0.0391
     37 H15        -4.7181   -0.0143    0.1741 H         1 <0>         0.0391
     38 H16        -5.1899    0.2752   -1.5149 H         1 <0>         0.0391
     39 H17        -4.0672   -1.7260   -2.0233 H         1 <0>         0.0391
     40 H18        -3.1599   -2.0387   -0.5401 H         1 <0>         0.0391
     41 H19        -2.3396   -1.7932   -2.1143 H         1 <0>         0.0391
     42 H20         5.1117   -0.6448    0.3615 H         1 <0>         0.0618
     43 H21         2.1515    4.2201   -1.2595 H         1 <0>         0.0618
     44 H22         2.9768   -2.3234   -2.9678 H         1 <0>         0.0618
     45 H23        -0.5664    4.1989    2.0682 H         1 <0>         0.0618
     46 H24         5.1015   -1.9610   -1.7413 H         1 <0>         0.0618
     47 H25         0.8781    5.4440    0.4817 H         1 <0>         0.0618
@<TRIPOS>BOND
     1    1    8 2
     2    2    7 1
     3    2   15 1
     4    2   16 1
     5    3    4 1
     6    3    5 1
     7    3    6 1
     8    3    8 1
     9    4    7 1
    10    4   23 1
    11    4   24 1
    12    5   10 ar
    13    5   12 ar
    14    6   11 ar
    15    6   13 ar
    16    7   25 1
    17    7   26 1
    18    8    9 1
    19    9   14 1
    20    9   27 1
    21    9   28 1
    22   10   17 ar
    23   10   29 1
    24   11   18 ar
    25   11   30 1
    26   12   19 ar
    27   12   31 1
    28   13   20 ar
    29   13   32 1
    30   14   33 1
    31   14   34 1
    32   14   35 1
    33   15   36 1
    34   15   37 1
    35   15   38 1
    36   16   39 1
    37   16   40 1
    38   16   41 1
    39   17   21 ar
    40   17   42 1
    41   18   22 ar
    42   18   43 1
    43   19   21 ar
    44   19   44 1
    45   20   22 ar
    46   20   45 1
    47   21   46 1
    48   22   47 1
