@<TRIPOS>MOLECULE
DB11256
   58    60     0     0     0
SMALL
USER_CHARGES

@<TRIPOS>ATOM
      1 O1          6.9707    0.9726   -2.0155 O.2       1 <0>        -0.2636
      2 O2         -3.9840    0.7246   -2.5401 O.2       1 <0>        -0.2702
      3 O3         -8.3748    1.5171   -0.1945 O.3       1 <0>        -0.4793
      4 O4         -6.6485    2.0135    1.1925 O.2       1 <0>        -0.2489
      5 O5         -6.9517   -3.7421    1.5049 O.3       1 <0>        -0.4806
      6 O6         -7.3571   -3.6283   -0.7245 O.2       1 <0>        -0.2510
      7 N1          5.0242    1.2794    0.0932 N.pl3     1 <0>        -0.3201
      8 N2          4.5747   -1.0030    1.5840 N.pl3     1 <0>        -0.3270
      9 N3          1.4030    1.3900    0.7658 N.pl3     1 <0>        -0.3420
     10 N4          6.1879   -2.1906    0.2494 N.pl3     1 <0>        -0.3147
     11 N5          7.4286   -1.1882   -1.4750 N.2       1 <0>        -0.1759
     12 N6         -4.8542    0.7889   -0.3916 N.am      1 <0>        -0.2983
     13 N7          7.7519   -3.4392   -0.8783 N.pl3     1 <0>        -0.3289
     14 C1          3.8174    1.2404    0.9556 C.3       1 <0>         0.0543
     15 C2          4.0123    0.2291    2.0956 C.3       1 <0>         0.0304
     16 C3          2.5870    0.9123    0.1053 C.3       1 <0>         0.0291
     17 C4          5.7292    0.0878   -0.1655 C.2       1 <0>         0.1354
     18 C5          5.4973   -1.0418    0.5528 C.2       1 <0>         0.1257
     19 C6          5.3033    2.5681   -0.5317 C.3       1 <0>         0.0013
     20 C7          6.7551    0.0085   -1.2880 C.2       1 <0>         0.2975
     21 C8          0.1194    1.2504    0.2532 C.ar      1 <0>         0.0272
     22 C9          7.1355   -2.2234   -0.7377 C.cat     1 <0>         0.1951
     23 C10        -0.9731    1.7470    0.9643 C.ar      1 <0>        -0.0401
     24 C11        -0.0769    0.6149   -0.9729 C.ar      1 <0>        -0.0401
     25 C12        -6.2402    0.6262   -0.7672 C.3       1 <0>         0.1209
     26 C13        -2.4582    0.9725   -0.7769 C.ar      1 <0>         0.0368
     27 C14        -6.6615   -0.8458   -0.8542 C.3       1 <0>        -0.0140
     28 C15        -2.2618    1.6082    0.4492 C.ar      1 <0>        -0.0479
     29 C16        -1.3657    0.4760   -1.4879 C.ar      1 <0>        -0.0479
     30 C17        -3.8020    0.8281   -1.3139 C.2       1 <0>         0.2447
     31 C18        -6.5778   -1.6431    0.4536 C.3       1 <0>         0.0470
     32 C19        -7.0751    1.4453    0.1955 C.2       1 <0>         0.3253
     33 C20        -6.9919   -3.0920    0.3124 C.2       1 <0>         0.3048
     34 H1          3.6833    2.2244    1.4253 H         1 <0>         0.0530
     35 H2          4.7106    0.6434    2.8331 H         1 <0>         0.0480
     36 H3          3.0723    0.0256    2.6191 H         1 <0>         0.0480
     37 H4          2.5246   -0.1666   -0.0809 H         1 <0>         0.0480
     38 H5          2.6759    1.4100   -0.8687 H         1 <0>         0.0480
     39 H6          4.4517   -1.8587    2.1145 H         1 <0>         0.1475
     40 H7          6.3633    2.8251   -0.4354 H         1 <0>         0.0428
     41 H8          5.0221    2.5514   -1.5895 H         1 <0>         0.0428
     42 H9          4.7418    3.3825   -0.0607 H         1 <0>         0.0428
     43 H10         1.4926    1.8460    1.6676 H         1 <0>         0.1461
     44 H11         5.9823   -3.0089    0.8114 H         1 <0>         0.1698
     45 H12        -0.8333    2.2505    1.9176 H         1 <0>         0.0636
     46 H13         0.7446    0.2138   -1.5589 H         1 <0>         0.0636
     47 H14        -6.3627    1.0845   -1.7568 H         1 <0>         0.0614
     48 H15        -7.6925   -0.9009   -1.2275 H         1 <0>         0.0294
     49 H16        -6.0413   -1.3478   -1.6085 H         1 <0>         0.0294
     50 H17        -3.0802    2.0368    1.0202 H         1 <0>         0.0626
     51 H18        -1.4981   -0.0260   -2.4428 H         1 <0>         0.0626
     52 H19        -4.6516    0.7958    0.6027 H         1 <0>         0.1498
     53 H20         8.4730   -3.5845   -1.5765 H         1 <0>         0.1451
     54 H21         7.5055   -4.2286   -0.2913 H         1 <0>         0.1451
     55 H22        -5.5481   -1.6306    0.8278 H         1 <0>         0.0378
     56 H23        -7.2306   -1.1845    1.2044 H         1 <0>         0.0378
     57 H24        -8.9114    2.0609    0.4206 H         1 <0>         0.2951
     58 H25        -7.2368   -4.6770    1.4211 H         1 <0>         0.2951
@<TRIPOS>BOND
     1    1   20 2
     2    2   30 2
     3    3   32 1
     4    3   57 1
     5    4   32 2
     6    5   33 1
     7    5   58 1
     8    6   33 2
     9    7   14 1
    10    7   17 1
    11    7   19 1
    12    8   15 1
    13    8   18 1
    14    8   39 1
    15    9   16 1
    16    9   21 1
    17    9   43 1
    18   10   18 1
    19   10   22 2
    20   10   44 1
    21   11   20 1
    22   11   22 1
    23   12   25 1
    24   12   30 am
    25   12   52 1
    26   13   22 1
    27   13   53 1
    28   13   54 1
    29   14   15 1
    30   14   16 1
    31   14   34 1
    32   15   35 1
    33   15   36 1
    34   16   37 1
    35   16   38 1
    36   17   18 2
    37   17   20 1
    38   19   40 1
    39   19   41 1
    40   19   42 1
    41   21   23 ar
    42   21   24 ar
    43   23   28 ar
    44   23   45 1
    45   24   29 ar
    46   24   46 1
    47   25   27 1
    48   25   32 1
    49   25   47 1
    50   26   28 ar
    51   26   29 ar
    52   26   30 1
    53   27   31 1
    54   27   48 1
    55   27   49 1
    56   28   50 1
    57   29   51 1
    58   31   33 1
    59   31   55 1
    60   31   56 1
