@<TRIPOS>MOLECULE
DB11115
   29    31     0     0     0
SMALL
USER_CHARGES

@<TRIPOS>ATOM
      1 S1          5.2413   -0.8850    0.0011 S.o2      1 <0>        -0.0511
      2 O1          5.5580   -1.0239   -1.4272 O.3       1 <0>        -0.7202
      3 O2          6.1002    0.0769    0.7087 O.2       1 <0>        -0.1803
      4 O3          5.0622   -2.1557    0.7181 O.2       1 <0>        -0.1803
      5 N1          0.0024   -0.8953   -0.0001 N.pl3     1 <0>        -0.2365
      6 N2         -0.1983    1.2593    0.0014 N.pl3     1 <0>        -0.2365
      7 C1          1.2864   -0.3905    0.0007 C.2       1 <0>         0.1749
      8 C2          1.1570    1.0004    0.0018 C.2       1 <0>         0.1732
      9 C3         -0.8801    0.1091    0.0005 C.2       1 <0>         0.2882
     10 C4          2.5226   -1.0258    0.0006 C.2       1 <0>         0.0129
     11 C5          3.6399   -0.1786    0.0015 C.2       1 <0>         0.0809
     12 C6         -2.3542   -0.0283    0.0006 C.ar      1 <0>         0.0638
     13 C7          2.2548    1.8530    0.0025 C.2       1 <0>        -0.0092
     14 C8          3.5092    1.2266    0.0024 C.2       1 <0>        -0.0336
     15 C9         -2.9220   -1.2946   -0.0000 C.ar      1 <0>        -0.0468
     16 C10        -3.1467    1.1109    0.0009 C.ar      1 <0>        -0.0468
     17 C11        -4.3109   -1.4244   -0.0004 C.ar      1 <0>        -0.0609
     18 C12        -4.5356    0.9811    0.0005 C.ar      1 <0>        -0.0609
     19 C13        -5.1176   -0.2866   -0.0001 C.ar      1 <0>        -0.0617
     20 H1         -0.2201   -1.8866   -0.0009 H         1 <0>         0.3114
     21 H2         -0.6002    2.1925    0.0019 H         1 <0>         0.3114
     22 H3          2.5841   -2.1059   -0.0086 H         1 <0>         0.0680
     23 H4          2.1403    2.9293    0.0010 H         1 <0>         0.0661
     24 H5          4.3926    1.8616   -0.0070 H         1 <0>         0.0638
     25 H6         -2.3178   -2.1959   -0.0004 H         1 <0>         0.0626
     26 H7         -2.7198    2.1084    0.0013 H         1 <0>         0.0626
     27 H8         -4.7645   -2.4113   -0.0009 H         1 <0>         0.0618
     28 H9         -5.1641    1.8669    0.0006 H         1 <0>         0.0618
     29 H10        -6.1990   -0.3875   -0.0004 H         1 <0>         0.0618
@<TRIPOS>BOND
     1    1    2 1
     2    1    3 2
     3    1    4 2
     4    1   11 1
     5    5    7 1
     6    5    9 2
     7    5   20 1
     8    6    8 2
     9    6    9 1
    10    6   21 1
    11    7    8 1
    12    7   10 2
    13    8   13 2
    14    9   12 1
    15   10   11 1
    16   10   22 1
    17   11   14 2
    18   12   15 ar
    19   12   16 ar
    20   13   14 1
    21   13   23 1
    22   14   24 1
    23   15   17 ar
    24   15   25 1
    25   16   18 ar
    26   16   26 1
    27   17   19 ar
    28   17   27 1
    29   18   19 ar
    30   18   28 1
    31   19   29 1
