@<TRIPOS>MOLECULE
DB11560
   38    41     0     0     0
SMALL
USER_CHARGES

@<TRIPOS>ATOM
      1 Br1         0.5880    3.5969   -2.8257 Br        1 <0>        -0.0059
      2 S1          2.7927   -0.7538   -0.0043 S.3       1 <0>        -0.0743
      3 O1          6.0293   -2.1143    1.7021 O.3       1 <0>        -0.4800
      4 O2          4.1599   -3.1882    0.9827 O.2       1 <0>        -0.2501
      5 N1          1.4629    1.2463   -1.3125 N.pl3     1 <0>        -0.2644
      6 N2          3.6414    1.4467   -1.3522 N.2       1 <0>        -0.1213
      7 N3          3.0934    2.5106   -2.0409 N.2       1 <0>        -0.1208
      8 C1         -3.7482   -0.8513   -0.5341 C.3       1 <0>        -0.0152
      9 C2         -3.9198   -2.3415   -0.5734 C.3       1 <0>        -0.0456
     10 C3         -4.1003   -1.5993    0.7182 C.3       1 <0>        -0.0456
     11 C4         -2.3793   -0.2626   -0.6810 C.ar      1 <0>        -0.0364
     12 C5         -1.8435    0.6188    0.2721 C.ar      1 <0>        -0.0125
     13 C6         -1.6435   -0.6230   -1.8103 C.ar      1 <0>        -0.0558
     14 C7         -0.5432    1.1421    0.0770 C.ar      1 <0>         0.0064
     15 C8          0.1833    0.7686   -1.0655 C.ar      1 <0>         0.0587
     16 C9         -0.3647   -0.1083   -2.0021 C.ar      1 <0>        -0.0368
     17 C10        -2.5698    0.9923    1.4145 C.ar      1 <0>        -0.0537
     18 C11        -0.0074    2.0236    1.0301 C.ar      1 <0>        -0.0520
     19 C12        -2.0219    1.8693    2.3512 C.ar      1 <0>        -0.0612
     20 C13        -0.7431    2.3840    2.1593 C.ar      1 <0>        -0.0611
     21 C14         2.6486    0.7006   -0.9237 C.cat     1 <0>         0.1973
     22 C15         1.7874    2.3725   -2.0062 C.cat     1 <0>         0.2054
     23 C16         4.5982   -0.9530    0.1940 C.3       1 <0>         0.0983
     24 C17         4.8790   -2.1971    0.9868 C.2       1 <0>         0.3151
     25 H1         -4.5549   -0.2733   -0.9801 H         1 <0>         0.0349
     26 H2         -3.0492   -2.9806   -0.6603 H         1 <0>         0.0271
     27 H3         -4.8066   -2.7344   -1.0564 H         1 <0>         0.0271
     28 H4         -5.1089   -1.4970    1.1013 H         1 <0>         0.0271
     29 H5         -3.3541   -1.7847    1.4818 H         1 <0>         0.0271
     30 H6         -2.0562   -1.2998   -2.5540 H         1 <0>         0.0621
     31 H7          0.1926   -0.4003   -2.8895 H         1 <0>         0.0638
     32 H8         -3.5864    0.6633    1.6007 H         1 <0>         0.0624
     33 H9          0.9856    2.4532    0.9257 H         1 <0>         0.0624
     34 H10        -2.5976    2.1587    3.2257 H         1 <0>         0.0618
     35 H11        -0.3186    3.0685    2.8878 H         1 <0>         0.0618
     36 H12         4.9849   -0.0827    0.7325 H         1 <0>         0.0495
     37 H13         5.0855   -1.0356   -0.7813 H         1 <0>         0.0495
     38 H14         6.2045   -2.9353    2.2098 H         1 <0>         0.2951
@<TRIPOS>BOND
     1    1   22 1
     2    2   21 1
     3    2   23 1
     4    3   24 1
     5    3   38 1
     6    4   24 2
     7    5   15 1
     8    5   21 1
     9    5   22 2
    10    6    7 2
    11    6   21 1
    12    7   22 1
    13    8    9 1
    14    8   10 1
    15    8   11 1
    16    8   25 1
    17    9   10 1
    18    9   26 1
    19    9   27 1
    20   10   28 1
    21   10   29 1
    22   11   12 ar
    23   11   13 ar
    24   12   14 ar
    25   12   17 ar
    26   13   16 ar
    27   13   30 1
    28   14   15 ar
    29   14   18 ar
    30   15   16 ar
    31   16   31 1
    32   17   19 ar
    33   17   32 1
    34   18   20 ar
    35   18   33 1
    36   19   20 ar
    37   19   34 1
    38   20   35 1
    39   23   24 1
    40   23   36 1
    41   23   37 1
