@<TRIPOS>MOLECULE
DB11182
   37    40     0     0     0
SMALL
USER_CHARGES

@<TRIPOS>ATOM
      1 I1          5.4460   -0.4747    0.0698 I         1 <0>        -0.0361
      2 I2          3.1851   -4.5426   -0.0583 I         1 <0>        -0.0360
      3 I3          2.4203    4.7881    0.4176 I         1 <0>        -0.0400
      4 I4         -2.9098   -4.7973    0.1308 I         1 <0>        -0.0398
      5 Cl1        -1.1729    0.3230    3.0349 Cl        1 <0>        -0.0813
      6 Cl2        -4.0531    1.9461   -2.2956 Cl        1 <0>        -0.0811
      7 Cl3        -3.9825    1.7448    3.1491 Cl        1 <0>        -0.0805
      8 Cl4        -5.4297    2.5608    0.4786 Cl        1 <0>        -0.0805
      9 O1          2.4569   -1.4405    0.1181 O.3       1 <0>        -0.4525
     10 O2          4.8399    2.6584    0.2349 O.3       1 <0>        -0.5046
     11 O3          0.1896   -5.6084   -0.0084 O.2       1 <0>        -0.2856
     12 O4         -0.6025    1.6141   -2.5505 O.3       1 <0>        -0.4771
     13 O5         -1.5408   -0.4430   -2.7835 O.2       1 <0>        -0.2451
     14 C1         -0.0835   -0.1459    0.2630 C.2       1 <0>         0.0058
     15 C2          1.1915    0.6134    0.2578 C.ar      1 <0>         0.0280
     16 C3         -0.0140   -1.5051    0.1958 C.2       1 <0>         0.0280
     17 C4         -1.3919    0.5157    0.3354 C.ar      1 <0>         0.0187
     18 C5          2.3983   -0.0771    0.1856 C.ar      1 <0>         0.1529
     19 C6          1.2874   -2.1922    0.1203 C.2       1 <0>         0.1530
     20 C7          1.2359    2.0159    0.3230 C.ar      1 <0>        -0.0337
     21 C8         -2.0309    0.8760   -0.8486 C.ar      1 <0>         0.0877
     22 C9         -1.2222   -2.3383    0.1953 C.2       1 <0>        -0.0336
     23 C10         3.6228    0.5983    0.1777 C.ar      1 <0>         0.0985
     24 C11        -1.9896    0.7818    1.5651 C.ar      1 <0>         0.0693
     25 C12         1.3676   -3.5361    0.0525 C.2       1 <0>         0.1037
     26 C13         2.4564    2.6970    0.3154 C.ar      1 <0>         0.0566
     27 C14         3.6507    1.9878    0.2426 C.ar      1 <0>         0.1466
     28 C15        -1.1827   -3.6766    0.1294 C.2       1 <0>         0.0618
     29 C16        -3.2746    1.5058   -0.8028 C.ar      1 <0>         0.0753
     30 C17         0.1296   -4.3833    0.0519 C.2       1 <0>         0.2086
     31 C18        -3.2334    1.4117    1.6111 C.ar      1 <0>         0.0796
     32 C19        -3.8760    1.7735    0.4271 C.ar      1 <0>         0.0798
     33 C20        -1.3929    0.5913   -2.1358 C.2       1 <0>         0.3389
     34 H1          0.3116    2.5868    0.3812 H         1 <0>         0.0636
     35 H2         -2.1932   -1.8568    0.2505 H         1 <0>         0.0636
     36 H3          5.5608    2.0080    0.1803 H         1 <0>         0.2922
     37 H4         -0.1740    1.4196   -3.4113 H         1 <0>         0.2954
@<TRIPOS>BOND
     1    1   23 1
     2    2   25 1
     3    3   26 1
     4    4   28 1
     5    5   24 1
     6    6   29 1
     7    7   31 1
     8    8   32 1
     9    9   18 1
    10    9   19 1
    11   10   27 1
    12   10   36 1
    13   11   30 2
    14   12   33 1
    15   12   37 1
    16   13   33 2
    17   14   15 1
    18   14   16 2
    19   14   17 1
    20   15   18 ar
    21   15   20 ar
    22   16   19 1
    23   16   22 1
    24   17   21 ar
    25   17   24 ar
    26   18   23 ar
    27   19   25 2
    28   20   26 ar
    29   20   34 1
    30   21   29 ar
    31   21   33 1
    32   22   28 2
    33   22   35 1
    34   23   27 ar
    35   24   31 ar
    36   25   30 1
    37   26   27 ar
    38   28   30 1
    39   29   32 ar
    40   31   32 ar
