@<TRIPOS>MOLECULE
DB11817
   43    46     0     0     0
SMALL
USER_CHARGES

@<TRIPOS>ATOM
      1 S1          4.2705    1.2822   -0.2311 S.o2      1 <0>         0.0317
      2 O1          4.9562    2.1298    0.7180 O.2       1 <0>        -0.1580
      3 O2          3.6279    1.8197   -1.4091 O.2       1 <0>        -0.1580
      4 N1          3.1382    0.3127    0.6172 N.pl3     1 <0>        -0.1764
      5 N2         -0.0867   -0.4649    0.3374 N.pl3     1 <0>        -0.2612
      6 N3         -0.3710   -1.1289   -0.7961 N.2       1 <0>        -0.1784
      7 N4          0.8146   -3.9740    1.4612 N.1       1 <0>        -0.1965
      8 N5         -3.5177    1.9432    0.6347 N.2       1 <0>        -0.2346
      9 N6         -6.7893    0.0604   -0.8061 N.pl3     1 <0>        -0.3457
     10 N7         -5.9293    2.0179    0.3084 N.2       1 <0>        -0.2179
     11 C1          1.2065   -0.5518    0.9898 C.3       1 <0>         0.1047
     12 C2          2.3469   -0.8064   -0.0083 C.3       1 <0>         0.0477
     13 C3          1.8481    0.8287    1.1995 C.3       1 <0>         0.0477
     14 C4          1.1271   -1.4594    2.1846 C.3       1 <0>         0.0625
     15 C5          5.3956    0.0123   -0.7485 C.3       1 <0>         0.0791
     16 C6         -1.1198    0.2923    0.8062 C.2       1 <0>         0.0354
     17 C7         -2.1514    0.1113   -0.0823 C.2       1 <0>         0.0385
     18 C8          0.9523   -2.8688    1.7865 C.1       1 <0>         0.0650
     19 C9         -1.6335   -0.7729   -1.0476 C.2       1 <0>         0.0586
     20 C10         6.5450    0.5823   -1.5492 C.3       1 <0>        -0.0442
     21 C11        -3.4319    0.7316    0.0382 C.cat     1 <0>         0.0863
     22 C12        -4.5879    0.1196   -0.4440 C.2       1 <0>         0.0447
     23 C13        -5.7784    0.8156   -0.2736 C.2       1 <0>         0.1419
     24 C14        -4.9094   -1.0943   -1.1037 C.2       1 <0>        -0.0330
     25 C15        -4.7444    2.5036    0.7314 C.2       1 <0>         0.1189
     26 C16        -6.2719   -1.1039   -1.3136 C.2       1 <0>         0.0042
     27 H1          2.8709   -1.7636    0.0670 H         1 <0>         0.0468
     28 H2          2.1461   -0.5974   -1.0656 H         1 <0>         0.0468
     29 H3          1.4448    1.6553    0.6026 H         1 <0>         0.0468
     30 H4          1.9654    1.1581    2.2360 H         1 <0>         0.0468
     31 H5          0.3203   -1.1628    2.8661 H         1 <0>         0.0442
     32 H6          2.0505   -1.3919    2.7747 H         1 <0>         0.0442
     33 H7          5.7707   -0.4884    0.1490 H         1 <0>         0.0513
     34 H8          4.8416   -0.7053   -1.3603 H         1 <0>         0.0513
     35 H9         -1.0365    0.8783    1.7126 H         1 <0>         0.0833
     36 H10        -2.1011   -1.1677   -1.9377 H         1 <0>         0.0854
     37 H11         6.1863    1.0913   -2.4496 H         1 <0>         0.0246
     38 H12         7.1156    1.3083   -0.9610 H         1 <0>         0.0246
     39 H13         7.2267   -0.2159   -1.8583 H         1 <0>         0.0246
     40 H14        -4.2441   -1.8949   -1.3925 H         1 <0>         0.0640
     41 H15        -7.7656    0.3207   -0.8215 H         1 <0>         0.1668
     42 H16        -6.9188   -1.8363   -1.7757 H         1 <0>         0.0807
     43 H17        -4.7791    3.4741    1.2143 H         1 <0>         0.1048
@<TRIPOS>BOND
     1    1    2 2
     2    1    3 2
     3    1    4 1
     4    1   15 1
     5    4   12 1
     6    4   13 1
     7    5    6 1
     8    5   11 1
     9    5   16 2
    10    6   19 1
    11    7   18 3
    12    8   21 1
    13    8   25 2
    14    9   23 1
    15    9   26 2
    16    9   41 1
    17   10   23 2
    18   10   25 1
    19   11   12 1
    20   11   13 1
    21   11   14 1
    22   12   27 1
    23   12   28 1
    24   13   29 1
    25   13   30 1
    26   14   18 1
    27   14   31 1
    28   14   32 1
    29   15   20 1
    30   15   33 1
    31   15   34 1
    32   16   17 1
    33   16   35 1
    34   17   19 2
    35   17   21 1
    36   19   36 1
    37   20   37 1
    38   20   38 1
    39   20   39 1
    40   21   22 1
    41   22   23 2
    42   22   24 2
    43   24   26 1
    44   24   40 1
    45   25   43 1
    46   26   42 1
