@<TRIPOS>MOLECULE
DB11742
   74    77     0     0     0
SMALL
USER_CHARGES

@<TRIPOS>ATOM
      1 O1          3.2570    0.2200    0.3599 O.3       1 <0>        -0.3640
      2 O2         -1.9732   -1.0602   -2.2671 O.2       1 <0>        -0.2921
      3 N1          1.0817   -3.3700   -0.1977 N.3       1 <0>        -0.3021
      4 C1          3.0240   -1.1678    0.1558 C.3       1 <0>         0.0622
      5 C2          2.2528   -1.3556   -1.1472 C.3       1 <0>        -0.0137
      6 C3          2.2403   -1.7431    1.3329 C.3       1 <0>        -0.0137
      7 C4          1.8269   -2.8128   -1.3347 C.3       1 <0>         0.0012
      8 C5          1.8140   -3.1871    1.0628 C.3       1 <0>         0.0012
      9 C6         -0.2824   -2.8518   -0.1242 C.3       1 <0>        -0.0007
     10 C7         -1.1787   -3.5770   -1.1301 C.3       1 <0>        -0.0332
     11 C8          4.4702    0.6397   -0.2491 C.3       1 <0>         0.1090
     12 C9         -2.6223   -3.0674   -1.0948 C.3       1 <0>         0.0116
     13 C10         4.3344    2.0612   -0.7540 C.ar      1 <0>        -0.0145
     14 C11         5.6578    0.4528    0.6751 C.ar      1 <0>        -0.0145
     15 C12        -2.7567   -1.6043   -1.4926 C.2       1 <0>         0.1632
     16 C13        -7.1549    1.4513    0.6594 C.3       1 <0>        -0.0127
     17 C14        -3.8925   -0.8146   -0.9368 C.ar      1 <0>         0.0174
     18 C15        -6.0186    0.6625    0.1026 C.ar      1 <0>        -0.0419
     19 C16         5.0623    2.4781   -1.8685 C.ar      1 <0>        -0.0558
     20 C17         6.9213    0.1940    0.1437 C.ar      1 <0>        -0.0558
     21 C18         3.4818    2.9535   -0.1042 C.ar      1 <0>        -0.0558
     22 C19         5.4869    0.5395    2.0567 C.ar      1 <0>        -0.0558
     23 C20        -6.8825    2.9809    0.8471 C.3       1 <0>        -0.0560
     24 C21        -8.4104    1.3638   -0.2629 C.3       1 <0>        -0.0560
     25 C22        -7.5699    0.9278    2.0695 C.3       1 <0>        -0.0560
     26 C23        -5.0952   -1.4484   -0.6245 C.ar      1 <0>        -0.0510
     27 C24        -3.7528    0.5576   -0.7294 C.ar      1 <0>        -0.0510
     28 C25        -6.1582   -0.7098   -0.1047 C.ar      1 <0>        -0.0574
     29 C26        -4.8158    1.2962   -0.2097 C.ar      1 <0>        -0.0574
     30 C27         4.9375    3.7874   -2.3331 C.ar      1 <0>        -0.0614
     31 C28         8.0137    0.0216    0.9939 C.ar      1 <0>        -0.0614
     32 C29         3.3569    4.2629   -0.5689 C.ar      1 <0>        -0.0614
     33 C30         6.5792    0.3673    2.9069 C.ar      1 <0>        -0.0614
     34 C31         4.0848    4.6798   -1.6833 C.ar      1 <0>        -0.0617
     35 C32         7.8427    0.1083    2.3755 C.ar      1 <0>        -0.0617
     36 H1          3.9734   -1.7196    0.1004 H         1 <0>         0.0597
     37 H2          1.3840   -0.6863   -1.1692 H         1 <0>         0.0302
     38 H3          2.8686   -1.0507   -2.0015 H         1 <0>         0.0302
     39 H4          2.8530   -1.6961    2.2413 H         1 <0>         0.0302
     40 H5          1.3622   -1.1171    1.5371 H         1 <0>         0.0302
     41 H6          1.2690   -2.9119   -2.2717 H         1 <0>         0.0427
     42 H7          2.7283   -3.4237   -1.4783 H         1 <0>         0.0427
     43 H8          2.7120   -3.8182    1.0296 H         1 <0>         0.0427
     44 H9          1.2278   -3.5673    1.9085 H         1 <0>         0.0427
     45 H10        -0.7025   -3.0529    0.8705 H         1 <0>         0.0427
     46 H11        -0.3219   -1.7656   -0.2521 H         1 <0>         0.0427
     47 H12        -0.7985   -3.4640   -2.1511 H         1 <0>         0.0282
     48 H13        -1.1823   -4.6522   -0.9109 H         1 <0>         0.0282
     49 H14         4.6424    0.0214   -1.1420 H         1 <0>         0.0697
     50 H15        -3.2310   -3.6580   -1.7888 H         1 <0>         0.0345
     51 H16        -3.0169   -3.2113   -0.0826 H         1 <0>         0.0345
     52 H17         5.7278    1.7944   -2.3884 H         1 <0>         0.0621
     53 H18         7.0700    0.1191   -0.9300 H         1 <0>         0.0621
     54 H19         2.9120    2.6572    0.7721 H         1 <0>         0.0621
     55 H20         4.5144    0.7493    2.4936 H         1 <0>         0.0621
     56 H21        -6.6476    3.4670   -0.1071 H         1 <0>         0.0238
     57 H22        -6.0545    3.1590    1.5430 H         1 <0>         0.0238
     58 H23        -7.7620    3.4910    1.2585 H         1 <0>         0.0238
     59 H24        -8.1787    1.7272   -1.2711 H         1 <0>         0.0238
     60 H25        -8.7775    0.3361   -0.3583 H         1 <0>         0.0238
     61 H26        -9.2370    1.9668    0.1306 H         1 <0>         0.0238
     62 H27        -8.3864    1.5248    2.4921 H         1 <0>         0.0238
     63 H28        -7.9142   -0.1117    2.0349 H         1 <0>         0.0238
     64 H29        -6.7243    0.9730    2.7658 H         1 <0>         0.0238
     65 H30        -7.0843   -1.2279    0.1272 H         1 <0>         0.0621
     66 H31        -4.6527    2.3588   -0.0673 H         1 <0>         0.0621
     67 H32        -5.2371   -2.5126   -0.7891 H         1 <0>         0.0625
     68 H33        -2.8210    1.0661   -0.9629 H         1 <0>         0.0625
     69 H34         5.5036    4.1119   -3.2013 H         1 <0>         0.0618
     70 H35         8.9973   -0.1809    0.5803 H         1 <0>         0.0618
     71 H36         2.6949    4.9587   -0.0616 H         1 <0>         0.0618
     72 H37         6.4466    0.4367    3.9828 H         1 <0>         0.0618
     73 H38         3.9881    5.6992   -2.0448 H         1 <0>         0.0618
     74 H39         8.6931   -0.0255    3.0374 H         1 <0>         0.0618
@<TRIPOS>BOND
     1    1    4 1
     2    1   11 1
     3    2   15 2
     4    3    7 1
     5    3    8 1
     6    3    9 1
     7    4    5 1
     8    4    6 1
     9    4   36 1
    10    5    7 1
    11    5   37 1
    12    5   38 1
    13    6    8 1
    14    6   39 1
    15    6   40 1
    16    7   41 1
    17    7   42 1
    18    8   43 1
    19    8   44 1
    20    9   10 1
    21    9   45 1
    22    9   46 1
    23   10   12 1
    24   10   47 1
    25   10   48 1
    26   11   13 1
    27   11   14 1
    28   11   49 1
    29   12   15 1
    30   12   50 1
    31   12   51 1
    32   13   19 ar
    33   13   21 ar
    34   14   20 ar
    35   14   22 ar
    36   15   17 1
    37   16   18 1
    38   16   23 1
    39   16   24 1
    40   16   25 1
    41   17   26 ar
    42   17   27 ar
    43   18   28 ar
    44   18   29 ar
    45   19   30 ar
    46   19   52 1
    47   20   31 ar
    48   20   53 1
    49   21   32 ar
    50   21   54 1
    51   22   33 ar
    52   22   55 1
    53   23   56 1
    54   23   57 1
    55   23   58 1
    56   24   59 1
    57   24   60 1
    58   24   61 1
    59   25   62 1
    60   25   63 1
    61   25   64 1
    62   26   28 ar
    63   26   67 1
    64   27   29 ar
    65   27   68 1
    66   28   65 1
    67   29   66 1
    68   30   34 ar
    69   30   69 1
    70   31   35 ar
    71   31   70 1
    72   32   34 ar
    73   32   71 1
    74   33   35 ar
    75   33   72 1
    76   34   73 1
    77   35   74 1
