@<TRIPOS>MOLECULE
DB11594
   64    64     0     0     0
SMALL
USER_CHARGES

@<TRIPOS>ATOM
      1 O1         -0.2880    1.6977    0.5653 O.3       1 <0>        -0.4867
      2 N1          3.4524    1.6323    0.3967 N.4       1 <0>         0.2414
      3 C1          3.6608    0.2903   -0.1948 C.3       1 <0>        -0.0305
      4 C2          3.5474   -0.7912    0.8722 C.3       1 <0>        -0.0125
      5 C3          2.0637    1.7359    1.0446 C.3       1 <0>         0.0044
      6 C4          3.7959   -2.2272    0.3957 C.3       1 <0>        -0.0483
      7 C5          3.5586    2.7263   -0.6761 C.3       1 <0>        -0.0414
      8 C6          4.5035    1.9238    1.4779 C.3       1 <0>        -0.0414
      9 C7          2.8151   -2.7602   -0.6532 C.3       1 <0>        -0.0529
     10 C8          1.3737   -2.8545   -0.1463 C.3       1 <0>        -0.0531
     11 C9          0.9998    1.5670   -0.0221 C.3       1 <0>         0.1292
     12 C10         0.4255   -3.3053   -1.2607 C.3       1 <0>        -0.0531
     13 C11        -1.0378   -3.3915   -0.8172 C.3       1 <0>        -0.0531
     14 C12        -1.6103   -2.0528   -0.3462 C.3       1 <0>        -0.0531
     15 C13        -3.0484   -2.2104    0.1533 C.3       1 <0>        -0.0531
     16 C14        -3.6098   -0.8811    0.6607 C.3       1 <0>        -0.0533
     17 C15        -5.0571   -1.0311    1.1285 C.3       1 <0>        -0.0559
     18 C16        -1.2817    2.2046   -0.2310 C.ar      1 <0>         0.1208
     19 C17        -5.6077    0.2808    1.6648 C.3       1 <0>        -0.0653
     20 C18        -1.2485    1.9915   -1.6092 C.ar      1 <0>        -0.0199
     21 C19        -2.3262    2.9343    0.3369 C.ar      1 <0>        -0.0199
     22 C20        -2.2595    2.5080   -2.4194 C.ar      1 <0>        -0.0583
     23 C21        -3.3374    3.4507   -0.4735 C.ar      1 <0>        -0.0583
     24 C22        -3.3039    3.2375   -1.8516 C.ar      1 <0>        -0.0615
     25 H1          4.6685    0.2766   -0.6299 H         1 <0>         0.0815
     26 H2          2.9634    0.1350   -1.0220 H         1 <0>         0.0815
     27 H3          4.2866   -0.6234    1.6626 H         1 <0>         0.0317
     28 H4          2.5717   -0.7868    1.3614 H         1 <0>         0.0317
     29 H5          1.9869    2.7355    1.4926 H         1 <0>         0.0849
     30 H6          1.9640    1.0305    1.8737 H         1 <0>         0.0849
     31 H7          4.8103   -2.2876   -0.0180 H         1 <0>         0.0267
     32 H8          3.7786   -2.8942    1.2669 H         1 <0>         0.0267
     33 H9          4.6178    2.8330   -0.9333 H         1 <0>         0.0778
     34 H10         3.1784    3.6677   -0.2689 H         1 <0>         0.0778
     35 H11         3.0170    2.4187   -1.5743 H         1 <0>         0.0778
     36 H12         4.4459    2.9887    1.7260 H         1 <0>         0.0778
     37 H13         5.4924    1.6845    1.0764 H         1 <0>         0.0778
     38 H14         4.2823    1.3396    2.3745 H         1 <0>         0.0778
     39 H15         2.8564   -2.1303   -1.5491 H         1 <0>         0.0265
     40 H16         3.1480   -3.7589   -0.9624 H         1 <0>         0.0265
     41 H17         1.3194   -3.5521    0.6974 H         1 <0>         0.0265
     42 H18         1.0644   -1.8730    0.2186 H         1 <0>         0.0265
     43 H19         1.1219    2.3359   -0.7888 H         1 <0>         0.0751
     44 H20         1.0356    0.5765   -0.4823 H         1 <0>         0.0751
     45 H21         0.5008   -2.6136   -2.1090 H         1 <0>         0.0265
     46 H22         0.7391   -4.2906   -1.6267 H         1 <0>         0.0265
     47 H23        -1.6377   -3.7673   -1.6551 H         1 <0>         0.0265
     48 H24        -1.1220   -4.1310   -0.0115 H         1 <0>         0.0265
     49 H25        -1.5765   -1.3281   -1.1681 H         1 <0>         0.0265
     50 H26        -1.0126   -1.6432    0.4740 H         1 <0>         0.0265
     51 H27        -3.6782   -2.5906   -0.6602 H         1 <0>         0.0265
     52 H28        -3.0797   -2.9521    0.9607 H         1 <0>         0.0265
     53 H29        -3.5631   -0.1345   -0.1410 H         1 <0>         0.0265
     54 H30        -2.9901   -0.5106    1.4862 H         1 <0>         0.0265
     55 H31        -5.1173   -1.7929    1.9145 H         1 <0>         0.0263
     56 H32        -5.6842   -1.3725    0.2967 H         1 <0>         0.0263
     57 H33        -5.0197    0.6336    2.5182 H         1 <0>         0.0230
     58 H34        -6.6428    0.1508    1.9955 H         1 <0>         0.0230
     59 H35        -5.5923    1.0568    0.8929 H         1 <0>         0.0230
     60 H36        -0.4725    1.4021   -2.0886 H         1 <0>         0.0654
     61 H37        -2.3580    3.1021    1.4099 H         1 <0>         0.0654
     62 H38        -2.2384    2.3356   -3.4915 H         1 <0>         0.0619
     63 H39        -4.1516    4.0173   -0.0312 H         1 <0>         0.0619
     64 H40        -4.0925    3.6375   -2.4822 H         1 <0>         0.0618
@<TRIPOS>BOND
     1    1   11 1
     2    1   18 1
     3    2    3 1
     4    2    5 1
     5    2    7 1
     6    2    8 1
     7    3    4 1
     8    3   25 1
     9    3   26 1
    10    4    6 1
    11    4   27 1
    12    4   28 1
    13    5   11 1
    14    5   29 1
    15    5   30 1
    16    6    9 1
    17    6   31 1
    18    6   32 1
    19    7   33 1
    20    7   34 1
    21    7   35 1
    22    8   36 1
    23    8   37 1
    24    8   38 1
    25    9   10 1
    26    9   39 1
    27    9   40 1
    28   10   12 1
    29   10   41 1
    30   10   42 1
    31   11   43 1
    32   11   44 1
    33   12   13 1
    34   12   45 1
    35   12   46 1
    36   13   14 1
    37   13   47 1
    38   13   48 1
    39   14   15 1
    40   14   49 1
    41   14   50 1
    42   15   16 1
    43   15   51 1
    44   15   52 1
    45   16   17 1
    46   16   53 1
    47   16   54 1
    48   17   19 1
    49   17   55 1
    50   17   56 1
    51   18   20 ar
    52   18   21 ar
    53   19   57 1
    54   19   58 1
    55   19   59 1
    56   20   22 ar
    57   20   60 1
    58   21   23 ar
    59   21   61 1
    60   22   24 ar
    61   22   62 1
    62   23   24 ar
    63   23   63 1
    64   24   64 1
