@<TRIPOS>MOLECULE
DB11148
   29    29     0     0     0
SMALL
USER_CHARGES

@<TRIPOS>ATOM
      1 O1         -0.5012    0.3790    0.1095 O.3       1 <0>        -0.4612
      2 O2          0.3308    2.4481    0.6802 O.2       1 <0>        -0.2450
      3 N1          5.5792   -1.1073   -0.2424 N.pl3     1 <0>        -0.3580
      4 C1         -2.7977   -0.2699   -0.0873 C.3       1 <0>        -0.0188
      5 C2         -4.2509    0.1857    0.0071 C.3       1 <0>        -0.0528
      6 C3         -1.8317    0.8630    0.2296 C.3       1 <0>         0.0928
      7 C4         -5.2113   -0.9368   -0.3521 C.3       1 <0>        -0.0652
      8 C5          1.8250    0.6525    0.2030 C.ar      1 <0>         0.0591
      9 C6          0.4888    1.2794    0.3634 C.2       1 <0>         0.3392
     10 C7          2.8857    1.4371   -0.2014 C.ar      1 <0>        -0.0460
     11 C8          1.9655   -0.6952    0.4645 C.ar      1 <0>        -0.0460
     12 C9          4.3091   -0.5120   -0.0927 C.ar      1 <0>         0.0246
     13 C10         4.1414    0.8484   -0.3509 C.ar      1 <0>        -0.0403
     14 C11         3.2212   -1.2838    0.3149 C.ar      1 <0>        -0.0403
     15 H1         -2.6158   -1.1067    0.5985 H         1 <0>         0.0298
     16 H2         -2.5852   -0.6552   -1.0926 H         1 <0>         0.0298
     17 H3         -4.4212    1.0319   -0.6687 H         1 <0>         0.0264
     18 H4         -4.4666    0.5341    1.0239 H         1 <0>         0.0264
     19 H5         -1.9823    1.6920   -0.4721 H         1 <0>         0.0697
     20 H6         -1.9988    1.2234    1.2514 H         1 <0>         0.0697
     21 H7         -5.0437   -1.2839   -1.3766 H         1 <0>         0.0230
     22 H8         -5.0887   -1.7891    0.3241 H         1 <0>         0.0230
     23 H9         -6.2462   -0.5890   -0.2762 H         1 <0>         0.0230
     24 H10         2.7669    2.4965   -0.4083 H         1 <0>         0.0626
     25 H11         1.1377   -1.3149    0.7962 H         1 <0>         0.0626
     26 H12         4.9814    1.4604   -0.6696 H         1 <0>         0.0636
     27 H13         3.3401   -2.3444    0.5224 H         1 <0>         0.0636
     28 H14         5.7005   -2.0942   -0.0577 H         1 <0>         0.1423
     29 H15         6.3679   -0.5488   -0.5402 H         1 <0>         0.1423
@<TRIPOS>BOND
     1    1    6 1
     2    1    9 1
     3    2    9 2
     4    3   12 1
     5    3   28 1
     6    3   29 1
     7    4    5 1
     8    4    6 1
     9    4   15 1
    10    4   16 1
    11    5    7 1
    12    5   17 1
    13    5   18 1
    14    6   19 1
    15    6   20 1
    16    7   21 1
    17    7   22 1
    18    7   23 1
    19    8    9 1
    20    8   10 ar
    21    8   11 ar
    22   10   13 ar
    23   10   24 1
    24   11   14 ar
    25   11   25 1
    26   12   13 ar
    27   12   14 ar
    28   13   26 1
    29   14   27 1
