@<TRIPOS>MOLECULE
DB11791
   48    52     0     0     0
SMALL
USER_CHARGES

@<TRIPOS>ATOM
      1 F1         -3.0984   -0.2346   -1.6125 F         1 <0>        -0.2047
      2 O1         -5.4059    0.2668    1.5829 O.2       1 <0>        -0.2701
      3 N1          2.7362    2.0973   -0.2325 N.ar      1 <0>        -0.2001
      4 N2          1.4961    1.5619   -0.2779 N.ar      1 <0>        -0.1621
      5 N3          4.3898    3.5022    0.2295 N.2       1 <0>        -0.2173
      6 N4          2.1516    4.0629    0.9606 N.ar      1 <0>        -0.2169
      7 N5          1.8021   -4.1032    1.5011 N.ar      1 <0>        -0.2550
      8 N6         -5.4754    0.2166   -0.7342 N.am      1 <0>        -0.3143
      9 C1          3.8797    0.2184   -1.5040 C.3       1 <0>         0.0165
     10 C2          3.8676    1.5413   -0.7642 C.cat     1 <0>         0.0690
     11 C3          3.3237   -0.9197   -0.7179 C.ar      1 <0>        -0.0408
     12 C4          2.0343   -1.3803   -0.9684 C.ar      1 <0>        -0.0490
     13 C5          3.0924    3.2915    0.3622 C.ar      1 <0>         0.2517
     14 C6          1.5062   -2.4526   -0.2295 C.ar      1 <0>         0.0007
     15 C7          4.8737    2.4252   -0.4650 C.2       1 <0>         0.0532
     16 C8          4.0891   -1.5272    0.2699 C.ar      1 <0>        -0.0562
     17 C9          0.5841    2.2762    0.3108 C.ar      1 <0>         0.1100
     18 C10         2.2776   -3.0740    0.7749 C.ar      1 <0>         0.0710
     19 C11        -0.8183    1.7999    0.3563 C.ar      1 <0>         0.0063
     20 C12         3.5638   -2.5931    1.0045 C.ar      1 <0>        -0.0355
     21 C13         0.9447    3.5989    0.9407 C.ar      1 <0>         0.0591
     22 C14         0.2114   -2.9362   -0.4609 C.ar      1 <0>        -0.0511
     23 C15        -1.3136    0.9912   -0.6665 C.ar      1 <0>        -0.0164
     24 C16        -1.6430    2.1601    1.4220 C.ar      1 <0>        -0.0516
     25 C17        -3.4584    0.9024    0.4421 C.ar      1 <0>         0.0718
     26 C18        -2.6336    0.5424   -0.6237 C.ar      1 <0>         0.1361
     27 C19        -2.9632    1.7114    1.4647 C.ar      1 <0>        -0.0462
     28 C20        -0.2814   -3.9967    0.2859 C.ar      1 <0>        -0.0430
     29 C21         0.5474   -4.5400    1.2464 C.ar      1 <0>         0.0283
     30 C22        -4.8350    0.4363    0.4908 C.2       1 <0>         0.2466
     31 C23        -6.8469   -0.2236   -0.8513 C.3       1 <0>         0.0004
     32 H1          4.9097   -0.0184   -1.8020 H         1 <0>         0.0377
     33 H2          3.3275    0.3437   -2.4448 H         1 <0>         0.0377
     34 H3          1.4336   -0.9143   -1.7472 H         1 <0>         0.0627
     35 H4          5.9218    2.3431   -0.7130 H         1 <0>         0.0849
     36 H5          5.0982   -1.1833    0.4816 H         1 <0>         0.0621
     37 H6          4.1834   -3.0517    1.7729 H         1 <0>         0.0639
     38 H7          0.1254    4.1874    1.3781 H         1 <0>         0.0853
     39 H8         -0.4209   -2.4881   -1.2239 H         1 <0>         0.0625
     40 H9         -0.6921    0.7042   -1.5103 H         1 <0>         0.0653
     41 H10        -1.2824    2.7649    2.2485 H         1 <0>         0.0624
     42 H11        -3.5895    2.0014    2.3045 H         1 <0>         0.0626
     43 H12        -1.2803   -4.3826    0.1206 H         1 <0>         0.0633
     44 H13         0.2162   -5.3706    1.8611 H         1 <0>         0.0830
     45 H14        -4.9846    0.4208   -1.5992 H         1 <0>         0.1487
     46 H15        -6.9405   -0.8284   -1.7562 H         1 <0>         0.0426
     47 H16        -7.4849    0.6599   -0.9312 H         1 <0>         0.0426
     48 H17        -7.1390   -0.8099    0.0234 H         1 <0>         0.0426
@<TRIPOS>BOND
     1    1   26 1
     2    2   30 2
     3    3    4 ar
     4    3   10 1
     5    3   13 ar
     6    4   17 ar
     7    5   13 1
     8    5   15 2
     9    6   13 ar
    10    6   21 ar
    11    7   18 ar
    12    7   29 ar
    13    8   30 am
    14    8   31 1
    15    8   45 1
    16    9   10 1
    17    9   11 1
    18    9   32 1
    19    9   33 1
    20   10   15 1
    21   11   12 ar
    22   11   16 ar
    23   12   14 ar
    24   12   34 1
    25   14   18 ar
    26   14   22 ar
    27   15   35 1
    28   16   20 ar
    29   16   36 1
    30   17   19 1
    31   17   21 ar
    32   18   20 ar
    33   19   23 ar
    34   19   24 ar
    35   20   37 1
    36   21   38 1
    37   22   28 ar
    38   22   39 1
    39   23   26 ar
    40   23   40 1
    41   24   27 ar
    42   24   41 1
    43   25   26 ar
    44   25   27 ar
    45   25   30 1
    46   27   42 1
    47   28   29 ar
    48   28   43 1
    49   29   44 1
    50   31   46 1
    51   31   47 1
    52   31   48 1
