@<TRIPOS>MOLECULE
DB11979
   75    78     0     0     0
SMALL
USER_CHARGES

@<TRIPOS>ATOM
      1 F1         -3.2408   -1.2516    1.4412 F         1 <0>        -0.2010
      2 F2         -0.5179    2.0584    1.8979 F         1 <0>        -0.2051
      3 F3          0.8920    7.2267   -0.8515 F         1 <0>        -0.1659
      4 F4          0.1571    5.5279   -1.9819 F         1 <0>        -0.1659
      5 F5         -1.1754    6.5897   -0.6304 F         1 <0>        -0.1659
      6 O1          0.9125    2.3540   -1.1616 O.2       1 <0>        -0.2462
      7 O2         -1.3147   -1.6851   -1.6749 O.2       1 <0>        -0.2668
      8 O3         -5.5197   -2.7634    1.6042 O.3       1 <0>        -0.4922
      9 O4          8.9307   -2.2869    0.7687 O.3       1 <0>        -0.4806
     10 O5          8.0960   -2.7727   -1.2872 O.2       1 <0>        -0.2510
     11 N1         -0.1629    0.3235   -1.4296 N.am      1 <0>        -0.2585
     12 N2         -1.3480    2.2293   -0.6353 N.am      1 <0>        -0.2927
     13 N3          3.2018   -1.3450   -1.2407 N.3       1 <0>        -0.3079
     14 C1          1.9033   -0.8765   -0.7419 C.3       1 <0>         0.0513
     15 C2          1.0805   -0.2835   -1.8964 C.3       1 <0>         0.0505
     16 C3         -2.5231    1.4737   -0.5437 C.2       1 <0>         0.0337
     17 C4         -0.1263    1.6891   -1.0790 C.2       1 <0>         0.3325
     18 C5         -2.5391    0.1671   -0.8836 C.2       1 <0>         0.0688
     19 C6          1.1794   -1.9864    0.0006 C.ar      1 <0>        -0.0288
     20 C7         -1.2906   -0.4934   -1.3664 C.2       1 <0>         0.2647
     21 C8         -1.3918    3.6438   -0.2524 C.3       1 <0>         0.0560
     22 C9          4.1881   -1.3430   -0.1744 C.3       1 <0>        -0.0030
     23 C10         5.5395   -1.8262   -0.7026 C.3       1 <0>        -0.0304
     24 C11        -3.7536   -0.6393   -0.7958 C.ar      1 <0>         0.0278
     25 C12        -0.2227    4.0298    0.6069 C.ar      1 <0>         0.0191
     26 C13        -3.7667    2.1872   -0.0486 C.3       1 <0>        -0.0233
     27 C14         0.3728   -1.6813    1.0971 C.ar      1 <0>        -0.0570
     28 C15         1.3204   -3.3107   -0.4143 C.ar      1 <0>        -0.0570
     29 C16         0.4837    5.2082    0.3659 C.ar      1 <0>         0.0624
     30 C17         6.6165   -1.8408    0.3779 C.3       1 <0>         0.0459
     31 C18        -4.0586   -1.3252    0.3800 C.ar      1 <0>         0.1726
     32 C19        -4.6104   -0.7213   -1.8933 C.ar      1 <0>        -0.0508
     33 C20         0.1542    3.1931    1.6577 C.ar      1 <0>         0.1288
     34 C21        -0.2922   -2.7004    1.7789 C.ar      1 <0>        -0.0615
     35 C22         0.6553   -4.3298    0.2674 C.ar      1 <0>        -0.0615
     36 C23        -0.1511   -4.0245    1.3640 C.ar      1 <0>        -0.0617
     37 C24         1.5671    5.5499    1.1752 C.ar      1 <0>        -0.0496
     38 C25        -5.2202   -2.0935    0.4579 C.ar      1 <0>         0.1557
     39 C26         0.0994    6.1194   -0.7528 C.3       1 <0>         0.4178
     40 C27         1.2376    3.5350    2.4669 C.ar      1 <0>        -0.0261
     41 C28        -5.7720   -1.4894   -1.8155 C.ar      1 <0>        -0.0575
     42 C29         1.9441    4.7133    2.2257 C.ar      1 <0>        -0.0585
     43 C30        -6.0769   -2.1756   -0.6398 C.ar      1 <0>        -0.0170
     44 C31         7.9374   -2.3406   -0.1524 C.2       1 <0>         0.3047
     45 C32        -6.7234   -3.5293    1.6132 C.3       1 <0>         0.0789
     46 H1          2.0799   -0.0542   -0.0329 H         1 <0>         0.0528
     47 H2          0.8440   -1.0631   -2.6323 H         1 <0>         0.0513
     48 H3          1.6686    0.4764   -2.4260 H         1 <0>         0.0513
     49 H4          3.5263   -0.7327   -1.9891 H         1 <0>         0.1226
     50 H5         -2.2771    3.9338    0.3152 H         1 <0>         0.0544
     51 H6         -1.4303    4.1852   -1.1999 H         1 <0>         0.0544
     52 H7          4.3118   -0.3316    0.2328 H         1 <0>         0.0424
     53 H8          3.8815   -1.9981    0.6494 H         1 <0>         0.0424
     54 H9          5.8659   -1.1824   -1.5302 H         1 <0>         0.0283
     55 H10         5.4272   -2.8359   -1.1198 H         1 <0>         0.0283
     56 H11        -3.9894    3.0613   -0.6707 H         1 <0>         0.0292
     57 H12        -4.6726    1.5758   -0.0788 H         1 <0>         0.0292
     58 H13        -3.6478    2.4895    0.9977 H         1 <0>         0.0292
     59 H14         0.2563   -0.6550    1.4347 H         1 <0>         0.0621
     60 H15         1.9251   -3.5795   -1.2758 H         1 <0>         0.0621
     61 H16         6.7652   -0.8268    0.7650 H         1 <0>         0.0378
     62 H17         6.3121   -2.4959    1.2014 H         1 <0>         0.0378
     63 H18        -4.3867   -0.1928   -2.8171 H         1 <0>         0.0625
     64 H19        -0.9203   -2.4626    2.6325 H         1 <0>         0.0618
     65 H20         0.7610   -5.3605   -0.0582 H         1 <0>         0.0618
     66 H21        -0.6703   -4.8177    1.8938 H         1 <0>         0.0618
     67 H22         2.1315    6.4624    1.0052 H         1 <0>         0.0623
     68 H23         1.5313    2.8830    3.2842 H         1 <0>         0.0646
     69 H24        -6.4385   -1.5527   -2.6708 H         1 <0>         0.0619
     70 H25         2.7879    4.9789    2.8558 H         1 <0>         0.0619
     71 H26        -6.9949   -2.7530   -0.6485 H         1 <0>         0.0655
     72 H27         9.7793   -2.6261    0.4124 H         1 <0>         0.2951
     73 H28        -7.6062   -2.8933    1.4872 H         1 <0>         0.0660
     74 H29        -6.6888   -4.3421    0.8798 H         1 <0>         0.0660
     75 H30        -6.8031   -3.9940    2.6014 H         1 <0>         0.0660
@<TRIPOS>BOND
     1    1   31 1
     2    2   33 1
     3    3   39 1
     4    4   39 1
     5    5   39 1
     6    6   17 2
     7    7   20 2
     8    8   38 1
     9    8   45 1
    10    9   44 1
    11    9   72 1
    12   10   44 2
    13   11   15 1
    14   11   17 am
    15   11   20 am
    16   12   16 1
    17   12   17 am
    18   12   21 1
    19   13   14 1
    20   13   22 1
    21   13   49 1
    22   14   15 1
    23   14   19 1
    24   14   46 1
    25   15   47 1
    26   15   48 1
    27   16   18 2
    28   16   26 1
    29   18   20 1
    30   18   24 1
    31   19   27 ar
    32   19   28 ar
    33   21   25 1
    34   21   50 1
    35   21   51 1
    36   22   23 1
    37   22   52 1
    38   22   53 1
    39   23   30 1
    40   23   54 1
    41   23   55 1
    42   24   31 ar
    43   24   32 ar
    44   25   29 ar
    45   25   33 ar
    46   26   56 1
    47   26   57 1
    48   26   58 1
    49   27   34 ar
    50   27   59 1
    51   28   35 ar
    52   28   60 1
    53   29   37 ar
    54   29   39 1
    55   30   44 1
    56   30   61 1
    57   30   62 1
    58   31   38 ar
    59   32   41 ar
    60   32   63 1
    61   33   40 ar
    62   34   36 ar
    63   34   64 1
    64   35   36 ar
    65   35   65 1
    66   36   66 1
    67   37   42 ar
    68   37   67 1
    69   38   43 ar
    70   40   42 ar
    71   40   68 1
    72   41   43 ar
    73   41   69 1
    74   42   70 1
    75   43   71 1
    76   45   73 1
    77   45   74 1
    78   45   75 1
