@<TRIPOS>MOLECULE
DB11577
   38    41     0     0     0
SMALL
USER_CHARGES

@<TRIPOS>ATOM
      1 S1          6.9519    0.5447    0.1339 S.o2      1 <0>         0.1096
      2 S2         -6.9520   -0.5447    0.1338 S.o2      1 <0>         0.1096
      3 O1          1.4633    2.1934    0.1384 O.2       1 <0>        -0.2852
      4 O2         -1.4632   -2.1934    0.1384 O.2       1 <0>        -0.2852
      5 O3          7.3555    0.6908   -1.4434 O.3       1 <0>        -0.2498
      6 O4         -7.3555   -0.6907   -1.4433 O.3       1 <0>        -0.2498
      7 O5          6.9440    1.8866    0.6969 O.2       1 <0>        -0.1421
      8 O6          7.7775   -0.5008    0.7171 O.2       1 <0>        -0.1421
      9 O7         -6.9440   -1.8866    0.6969 O.2       1 <0>        -0.1421
     10 O8         -7.7775    0.5008    0.7171 O.2       1 <0>        -0.1421
     11 N1          1.3540   -1.3004    0.1348 N.pl3     1 <0>        -0.3094
     12 N2         -1.3540    1.3005    0.1348 N.pl3     1 <0>        -0.3094
     13 C1          0.6561   -0.1194    0.1375 C.2       1 <0>         0.1045
     14 C2         -0.6561    0.1194    0.1375 C.2       1 <0>         0.1045
     15 C3          2.9760    0.3258    0.1343 C.ar      1 <0>         0.0466
     16 C4         -2.9761   -0.3259    0.1343 C.ar      1 <0>         0.0466
     17 C5          2.7206   -1.0522    0.1331 C.ar      1 <0>         0.0425
     18 C6         -2.7206    1.0523    0.1331 C.ar      1 <0>         0.0425
     19 C7          1.6646    0.9983    0.1375 C.2       1 <0>         0.2108
     20 C8         -1.6646   -0.9982    0.1375 C.2       1 <0>         0.2108
     21 C9          4.2476    0.8588    0.1338 C.ar      1 <0>        -0.0217
     22 C10        -4.2475   -0.8589    0.1338 C.ar      1 <0>        -0.0217
     23 C11         3.7679   -1.9495    0.1315 C.ar      1 <0>        -0.0380
     24 C12        -3.7679    1.9495    0.1315 C.ar      1 <0>        -0.0380
     25 C13         5.3079   -0.0481    0.1323 C.ar      1 <0>         0.1176
     26 C14        -5.3079    0.0481    0.1323 C.ar      1 <0>         0.1176
     27 C15         5.0711   -1.4374    0.1313 C.ar      1 <0>        -0.0326
     28 C16        -5.0712    1.4374    0.1313 C.ar      1 <0>        -0.0326
     29 H1          0.9209   -2.2086    0.1328 H         1 <0>         0.1523
     30 H2         -0.9209    2.2086    0.1328 H         1 <0>         0.1523
     31 H3          4.4003    1.9315    0.1287 H         1 <0>         0.0645
     32 H4         -4.4003   -1.9315    0.1287 H         1 <0>         0.0645
     33 H5          3.5965   -3.0205    0.1289 H         1 <0>         0.0637
     34 H6         -3.5966    3.0204    0.1290 H         1 <0>         0.0637
     35 H7          5.8991   -2.1421    0.1218 H         1 <0>         0.0638
     36 H8         -5.8991    2.1421    0.1218 H         1 <0>         0.0638
     37 H9          6.8124    1.3305   -1.9613 H         1 <0>         0.2449
     38 H10        -6.8124   -1.3305   -1.9613 H         1 <0>         0.2449
@<TRIPOS>BOND
     1    1    5 1
     2    1    7 2
     3    1    8 2
     4    1   25 1
     5    2    6 1
     6    2    9 2
     7    2   10 2
     8    2   26 1
     9    3   19 2
    10    4   20 2
    11    5   37 1
    12    6   38 1
    13   11   13 1
    14   11   17 1
    15   11   29 1
    16   12   14 1
    17   12   18 1
    18   12   30 1
    19   13   14 2
    20   13   19 1
    21   14   20 1
    22   15   17 ar
    23   15   19 1
    24   15   21 ar
    25   16   18 ar
    26   16   20 1
    27   16   22 ar
    28   17   23 ar
    29   18   24 ar
    30   21   25 ar
    31   21   31 1
    32   22   26 ar
    33   22   32 1
    34   23   27 ar
    35   23   33 1
    36   24   28 ar
    37   24   34 1
    38   25   27 ar
    39   26   28 ar
    40   27   35 1
    41   28   36 1
