@<TRIPOS>MOLECULE
DB11748
   54    55     0     0     0
SMALL
USER_CHARGES

@<TRIPOS>ATOM
      1 S1          0.4406    0.5844   -0.7901 S.3       1 <0>        -0.0498
      2 P1          5.0742    0.9743   -0.2102 P.3       1 <0>         0.4724
      3 O1          3.5888    1.0032    0.4281 O.3       1 <0>        -0.2864
      4 O2          0.4931   -2.3441   -3.5072 O.2       1 <0>        -0.2790
      5 O3         -1.3332    0.8415    1.1463 O.2       1 <0>        -0.2794
      6 O4          6.0259    1.0686    1.0940 O.3       1 <0>        -0.3026
      7 O5          5.2557   -0.5583   -0.6930 O.3       1 <0>        -0.3026
      8 O6          5.3347    2.0133   -1.2613 O.2       1 <0>        -0.2275
      9 N1          0.3944   -2.3850   -1.1644 N.am      1 <0>        -0.2727
     10 N2         -3.8962   -1.1390   -0.4661 N.ar      1 <0>        -0.2177
     11 N3         -3.0950   -1.9888    1.6419 N.ar      1 <0>        -0.2401
     12 N4         -2.7531   -1.6615   -2.4772 N.pl3     1 <0>        -0.3428
     13 C1          0.9771   -1.9539    0.0025 C.2       1 <0>         0.0203
     14 C2         -0.7881   -3.2285   -1.0705 C.3       1 <0>         0.0490
     15 C3          1.0995   -0.6369    0.2945 C.2       1 <0>         0.0125
     16 C4          1.7531   -0.1152    1.5639 C.3       1 <0>         0.0042
     17 C5         -1.9287   -2.5239   -0.3946 C.ar      1 <0>         0.0278
     18 C6          3.2662    0.0491    1.4308 C.3       1 <0>         0.0636
     19 C7          1.4611   -3.0798    0.8760 C.3       1 <0>        -0.0255
     20 C8         -2.8696   -1.7735   -1.0696 C.ar      1 <0>         0.1244
     21 C9          0.9161   -2.0278   -2.4002 C.2       1 <0>         0.2068
     22 C10        -2.0931   -2.5970    0.9736 C.ar      1 <0>         0.0376
     23 C11        -0.7037    1.4031    0.2579 C.2       1 <0>         0.2240
     24 C12        -3.9478   -1.2868    0.8714 C.ar      1 <0>         0.1280
     25 C13        -0.9405    2.8410   -0.0284 C.ar      1 <0>         0.0287
     26 C14        -5.0691   -0.5999    1.5745 C.3       1 <0>        -0.0046
     27 C15        -2.1985    3.3994    0.1985 C.ar      1 <0>        -0.0504
     28 C16         0.0951    3.6334   -0.5240 C.ar      1 <0>        -0.0504
     29 C17        -2.4210    4.7499   -0.0702 C.ar      1 <0>        -0.0611
     30 C18        -0.1274    4.9840   -0.7924 C.ar      1 <0>        -0.0611
     31 C19        -1.3855    5.5422   -0.5656 C.ar      1 <0>        -0.0617
     32 H1         -1.0855   -3.5813   -2.0650 H         1 <0>         0.0519
     33 H2         -0.5325   -4.1462   -0.5251 H         1 <0>         0.0519
     34 H3          1.3270    0.8532    1.8510 H         1 <0>         0.0341
     35 H4          1.5321   -0.7842    2.4043 H         1 <0>         0.0341
     36 H5          3.7333   -0.9146    1.2061 H         1 <0>         0.0569
     37 H6          3.6763    0.4049    2.3820 H         1 <0>         0.0569
     38 H7          2.2351   -2.7595    1.5790 H         1 <0>         0.0290
     39 H8          1.9205   -3.8680    0.2674 H         1 <0>         0.0290
     40 H9          0.6582   -3.5283    1.4620 H         1 <0>         0.0290
     41 H10         1.8447   -1.4374   -2.3161 H         1 <0>         0.1257
     42 H11        -1.4365   -3.1801    1.6066 H         1 <0>         0.0834
     43 H12        -3.4691   -1.1155   -2.9416 H         1 <0>         0.1437
     44 H13        -1.8268   -1.6454   -2.8847 H         1 <0>         0.1437
     45 H14        -4.8283    0.4592    1.7058 H         1 <0>         0.0308
     46 H15        -5.9933   -0.6815    0.9938 H         1 <0>         0.0308
     47 H16        -5.2466   -1.0424    2.5596 H         1 <0>         0.0308
     48 H17        -3.0178    2.7958    0.5802 H         1 <0>         0.0625
     49 H18         1.0982    3.2504   -0.6860 H         1 <0>         0.0625
     50 H19        -3.4006    5.1845    0.1057 H         1 <0>         0.0618
     51 H20         0.6804    5.6033   -1.1714 H         1 <0>         0.0618
     52 H21        -1.5582    6.5942   -0.7733 H         1 <0>         0.0618
     53 H22         6.9944    1.1612    0.9690 H         1 <0>         0.2220
     54 H23         6.0703   -0.8098   -1.1781 H         1 <0>         0.2220
@<TRIPOS>BOND
     1    1   15 1
     2    1   23 1
     3    2    3 1
     4    2    6 1
     5    2    7 1
     6    2    8 2
     7    3   18 1
     8    4   21 2
     9    5   23 2
    10    6   53 1
    11    7   54 1
    12    9   13 1
    13    9   14 1
    14    9   21 am
    15   10   20 ar
    16   10   24 ar
    17   11   22 ar
    18   11   24 ar
    19   12   20 1
    20   12   43 1
    21   12   44 1
    22   13   15 2
    23   13   19 1
    24   14   17 1
    25   14   32 1
    26   14   33 1
    27   15   16 1
    28   16   18 1
    29   16   34 1
    30   16   35 1
    31   17   20 ar
    32   17   22 ar
    33   18   36 1
    34   18   37 1
    35   19   38 1
    36   19   39 1
    37   19   40 1
    38   21   41 1
    39   22   42 1
    40   23   25 1
    41   24   26 1
    42   25   27 ar
    43   25   28 ar
    44   26   45 1
    45   26   46 1
    46   26   47 1
    47   27   29 ar
    48   27   48 1
    49   28   30 ar
    50   28   49 1
    51   29   31 ar
    52   29   50 1
    53   30   31 ar
    54   30   51 1
    55   31   52 1
