@<TRIPOS>MOLECULE
DB11712
   64    68     0     0     0
SMALL
USER_CHARGES

@<TRIPOS>ATOM
      1 F1         -1.4838    1.5682    1.8524 F         1 <0>        -0.2035
      2 F2         -8.2789    3.9025   -0.2808 F         1 <0>        -0.1252
      3 F3         -6.3492    4.5976   -1.0433 F         1 <0>        -0.1252
      4 O1         -2.7576   -2.8306   -0.2972 O.2       1 <0>        -0.2745
      5 O2         -6.3880    2.8602    0.4131 O.3       1 <0>        -0.3954
      6 O3         -7.2099    2.6610   -1.8489 O.3       1 <0>        -0.3955
      7 O4          4.6741   -0.3500   -2.5715 O.3       1 <0>        -0.3941
      8 O5          2.6793    3.0648    0.4174 O.3       1 <0>        -0.3878
      9 O6          5.0147    4.2157   -0.6131 O.3       1 <0>        -0.3924
     10 N1         -2.5358   -0.7403    0.7640 N.am      1 <0>        -0.2824
     11 N2          2.9286   -0.0215    0.5561 N.pl3     1 <0>        -0.3406
     12 C1         -4.7063   -1.7770    0.4574 C.3       1 <0>         0.0723
     13 C2         -5.2474   -2.2703    1.7671 C.3       1 <0>        -0.0337
     14 C3         -5.4496   -3.0792    0.5194 C.3       1 <0>        -0.0337
     15 C4         -5.3774   -0.6163   -0.1862 C.ar      1 <0>        -0.0288
     16 C5         -3.2239   -1.8477    0.2624 C.2       1 <0>         0.2278
     17 C6         -5.5262    0.5785    0.5223 C.ar      1 <0>        -0.0118
     18 C7         -5.8563   -0.7324   -1.5033 C.ar      1 <0>        -0.0539
     19 C8         -6.1551    1.6274   -0.1164 C.ar      1 <0>         0.1729
     20 C9         -1.1609   -0.5001    0.7421 C.ar      1 <0>         0.0697
     21 C10         4.7483   -1.4473   -0.3795 C.3       1 <0>         0.0284
     22 C11         3.3288   -1.1653   -0.0810 C.cat     1 <0>         0.0277
     23 C12        -6.4896    0.3448   -2.1276 C.ar      1 <0>        -0.0156
     24 C13        -6.6241    1.5137   -1.4070 C.ar      1 <0>         0.1727
     25 C14         1.5599   -0.0149    0.7052 C.ar      1 <0>         0.0522
     26 C15         1.0795   -1.1986    0.1407 C.ar      1 <0>         0.0021
     27 C16        -0.3077   -1.4447    0.1595 C.ar      1 <0>        -0.0285
     28 C17         2.2068   -1.9145   -0.3507 C.2       1 <0>        -0.0325
     29 C18         3.8159    1.0300    1.0098 C.3       1 <0>         0.0517
     30 C19        -0.6531    0.6724    1.2983 C.ar      1 <0>         0.1465
     31 C20         0.7191    0.9384    1.2906 C.ar      1 <0>        -0.0005
     32 C21         5.3844   -0.3743   -1.3379 C.3       1 <0>         0.0547
     33 C22         5.7058   -1.5268    0.8668 C.3       1 <0>        -0.0523
     34 C23         4.9139   -2.8330   -1.0936 C.3       1 <0>        -0.0523
     35 C24         3.7994    2.2453    0.0770 C.3       1 <0>         0.0960
     36 C25        -7.0525    3.4926   -0.6903 C.3       1 <0>         0.5891
     37 C26         5.0701    3.0764    0.2390 C.3       1 <0>         0.0718
     38 H1         -4.9085   -4.0154    0.4452 H         1 <0>         0.0279
     39 H2         -4.5526   -2.6537    2.5058 H         1 <0>         0.0279
     40 H3         -6.1239   -1.8014    2.1995 H         1 <0>         0.0279
     41 H4         -6.4601   -3.1403    0.1302 H         1 <0>         0.0279
     42 H5         -5.1732    0.6888    1.5420 H         1 <0>         0.0658
     43 H6         -5.7339   -1.6621   -2.0538 H         1 <0>         0.0622
     44 H7         -3.0827   -0.0173    1.2229 H         1 <0>         0.1549
     45 H8         -6.8589    0.2595   -3.1432 H         1 <0>         0.0655
     46 H9         -0.6335   -2.3711   -0.2882 H         1 <0>         0.0643
     47 H10         2.1771   -2.8755   -0.8458 H         1 <0>         0.0642
     48 H11         3.4670    1.3123    2.0122 H         1 <0>         0.0518
     49 H12         4.8189    0.6651    1.1628 H         1 <0>         0.0518
     50 H13         1.0921    1.8365    1.7658 H         1 <0>         0.0668
     51 H14         5.4306    0.6281   -0.9378 H         1 <0>         0.0566
     52 H15         6.4188   -0.6590   -1.5692 H         1 <0>         0.0566
     53 H16         4.3220   -2.8897   -2.0147 H         1 <0>         0.0239
     54 H17         5.1482   -1.7791    1.7758 H         1 <0>         0.0239
     55 H18         6.2713   -0.6075    1.0445 H         1 <0>         0.0239
     56 H19         6.4702   -2.3024    0.7351 H         1 <0>         0.0239
     57 H20         5.9581   -3.0204   -1.3707 H         1 <0>         0.0239
     58 H21         4.5919   -3.6524   -0.4397 H         1 <0>         0.0239
     59 H22         3.6638    1.9686   -0.9736 H         1 <0>         0.0634
     60 H23         5.9704    2.5073   -0.0069 H         1 <0>         0.0583
     61 H24         5.1597    3.4452    1.2668 H         1 <0>         0.0583
     62 H25         5.1163    0.3012   -3.1424 H         1 <0>         0.2094
     63 H26         2.8208    3.4111    1.3151 H         1 <0>         0.2100
     64 H27         5.8346    4.7187   -0.4702 H         1 <0>         0.2095
@<TRIPOS>BOND
     1    1   30 1
     2    2   36 1
     3    3   36 1
     4    4   16 2
     5    5   19 1
     6    5   36 1
     7    6   24 1
     8    6   36 1
     9    7   32 1
    10    7   62 1
    11    8   35 1
    12    8   63 1
    13    9   37 1
    14    9   64 1
    15   10   16 am
    16   10   20 1
    17   10   44 1
    18   11   22 1
    19   11   25 2
    20   11   29 1
    21   12   13 1
    22   12   14 1
    23   12   15 1
    24   12   16 1
    25   13   14 1
    26   13   39 1
    27   13   40 1
    28   14   38 1
    29   14   41 1
    30   15   17 ar
    31   15   18 ar
    32   17   19 ar
    33   17   42 1
    34   18   23 ar
    35   18   43 1
    36   19   24 ar
    37   20   27 ar
    38   20   30 ar
    39   21   22 1
    40   21   32 1
    41   21   33 1
    42   21   34 1
    43   22   28 1
    44   23   24 ar
    45   23   45 1
    46   25   26 ar
    47   25   31 ar
    48   26   27 ar
    49   26   28 2
    50   27   46 1
    51   28   47 1
    52   29   35 1
    53   29   48 1
    54   29   49 1
    55   30   31 ar
    56   31   50 1
    57   32   51 1
    58   32   52 1
    59   33   54 1
    60   33   55 1
    61   33   56 1
    62   34   53 1
    63   34   57 1
    64   34   58 1
    65   35   37 1
    66   35   59 1
    67   37   60 1
    68   37   61 1
