@<TRIPOS>MOLECULE
DB11278
   30    30     0     0     0
SMALL
USER_CHARGES

@<TRIPOS>ATOM
      1 O1         -0.0430    1.6746   -1.1944 O.3       1 <0>        -0.3856
      2 N1         -2.3746    0.3370   -0.1163 N.3       1 <0>        -0.3029
      3 C1         -1.0245   -0.2354   -0.0387 C.3       1 <0>         0.0371
      4 C2          0.0188    0.9037    0.0088 C.3       1 <0>         0.0954
      5 C3         -0.8330   -1.1582   -1.2438 C.3       1 <0>        -0.0468
      6 C4          1.4456    0.4162    0.1424 C.ar      1 <0>        -0.0177
      7 C5         -2.6106    1.2296    1.0152 C.3       1 <0>        -0.0127
      8 C6         -3.3736   -0.7277   -0.1507 C.3       1 <0>        -0.0127
      9 C7          2.4700    1.1685   -0.4052 C.ar      1 <0>        -0.0561
     10 C8          1.6942   -0.7707    0.8091 C.ar      1 <0>        -0.0561
     11 C9          3.7849    0.7194   -0.2821 C.ar      1 <0>        -0.0614
     12 C10         3.0091   -1.2197    0.9321 C.ar      1 <0>        -0.0614
     13 C11         4.0545   -0.4747    0.3866 C.ar      1 <0>        -0.0617
     14 H1         -0.9669   -0.8371    0.8757 H         1 <0>         0.0488
     15 H2         -0.1319    1.5810    0.8547 H         1 <0>         0.0659
     16 H3         -1.3681   -2.1063   -1.1186 H         1 <0>         0.0246
     17 H4         -1.1746   -0.6954   -2.1776 H         1 <0>         0.0246
     18 H5          0.2144   -1.4346   -1.3969 H         1 <0>         0.0246
     19 H6         -3.6705    1.5084    1.0684 H         1 <0>         0.0391
     20 H7         -2.0882    2.1845    0.9031 H         1 <0>         0.0391
     21 H8         -2.3455    0.7756    1.9771 H         1 <0>         0.0391
     22 H9         -4.3838   -0.3050   -0.0842 H         1 <0>         0.0391
     23 H10        -3.2609   -1.4388    0.6761 H         1 <0>         0.0391
     24 H11        -3.3678   -1.2736   -1.0993 H         1 <0>         0.0391
     25 H12         2.2953    2.1114   -0.9140 H         1 <0>         0.0621
     26 H13         0.9253   -1.3732    1.2757 H         1 <0>         0.0621
     27 H14         0.2067    1.1079   -1.9438 H         1 <0>         0.2103
     28 H15         4.5997    1.3018   -0.7025 H         1 <0>         0.0618
     29 H16         3.2204   -2.1460    1.4585 H         1 <0>         0.0618
     30 H17         5.0785   -0.8230    0.4846 H         1 <0>         0.0618
@<TRIPOS>BOND
     1    1    4 1
     2    1   27 1
     3    2    3 1
     4    2    7 1
     5    2    8 1
     6    3    4 1
     7    3    5 1
     8    3   14 1
     9    4    6 1
    10    4   15 1
    11    5   16 1
    12    5   17 1
    13    5   18 1
    14    6    9 ar
    15    6   10 ar
    16    7   19 1
    17    7   20 1
    18    7   21 1
    19    8   22 1
    20    8   23 1
    21    8   24 1
    22    9   11 ar
    23    9   25 1
    24   10   12 ar
    25   10   26 1
    26   11   13 ar
    27   11   28 1
    28   12   13 ar
    29   12   29 1
    30   13   30 1
