@<TRIPOS>MOLECULE
DB11800
   51    54     0     0     0
SMALL
USER_CHARGES

@<TRIPOS>ATOM
      1 Cl1        -1.1931    1.0071   -2.1521 Cl        1 <0>        -0.0815
      2 O1          1.7589   -0.9940    1.4559 O.3       1 <0>        -0.4553
      3 O2          5.7325    2.1309    0.9580 O.3       1 <0>        -0.4914
      4 O3          7.3921    0.8994   -0.9000 O.3       1 <0>        -0.4914
      5 O4         -8.8827   -0.1929    1.0229 O.3       1 <0>        -0.3581
      6 O5         -4.6872   -0.6786    1.5280 O.2       1 <0>        -0.2521
      7 N1          4.3310   -2.7170   -1.3030 N.ar      1 <0>        -0.2546
      8 N2         -3.3975    0.1548   -0.2407 N.am      1 <0>        -0.2679
      9 N3         -5.6967    0.3240   -0.3281 N.am      1 <0>        -0.2512
     10 N4         -7.5004   -0.3088    1.1044 N.2       1 <0>        -0.0627
     11 C1          3.8199   -0.9048    0.2010 C.ar      1 <0>         0.0463
     12 C2          4.6564   -1.5366   -0.7427 C.ar      1 <0>         0.0782
     13 C3          2.6212   -1.5413    0.5507 C.ar      1 <0>         0.1391
     14 C4          4.1908    0.3272    0.7659 C.ar      1 <0>        -0.0036
     15 C5          5.3873    0.9375    0.4007 C.ar      1 <0>         0.1623
     16 C6          5.8470   -0.9040   -1.0897 C.ar      1 <0>         0.0098
     17 C7          6.2161    0.3209   -0.5283 C.ar      1 <0>         0.1635
     18 C8          2.2832   -2.7576   -0.0250 C.ar      1 <0>        -0.0006
     19 C9          0.4770   -0.7047    1.0246 C.ar      1 <0>         0.1300
     20 C10         3.1651   -3.2982   -0.9385 C.ar      1 <0>         0.0318
     21 C11        -2.0887   -0.1233    0.1648 C.ar      1 <0>         0.0534
     22 C12         0.2999   -0.0729   -0.1940 C.ar      1 <0>         0.0008
     23 C13        -0.5983   -1.0528    1.8237 C.ar      1 <0>        -0.0175
     24 C14        -0.9931    0.2200   -0.6274 C.ar      1 <0>         0.0656
     25 C15        -1.8912   -0.7596    1.3902 C.ar      1 <0>        -0.0355
     26 C16        -4.6077   -0.1251    0.4360 C.2       1 <0>         0.3093
     27 C17         5.2992    3.3112    0.2842 C.3       1 <0>         0.0790
     28 C18        -7.0740    0.2389   -0.0154 C.2       1 <0>         0.1691
     29 C19         8.5495    0.5631   -0.1376 C.3       1 <0>         0.0790
     30 C20        -8.0757    0.7163   -0.8463 C.2       1 <0>         0.0222
     31 C21        -9.2130    0.4191   -0.1431 C.2       1 <0>         0.1361
     32 C22       -10.6451    0.6239   -0.3937 C.3       1 <0>        -0.0036
     33 H1          3.5520    0.8210    1.4953 H         1 <0>         0.0663
     34 H2          6.5086   -1.3725   -1.8170 H         1 <0>         0.0677
     35 H3          1.3700   -3.2842    0.2297 H         1 <0>         0.0670
     36 H4          2.9554   -4.2483   -1.4190 H         1 <0>         0.0831
     37 H5          1.1476    0.2162   -0.8093 H         1 <0>         0.0669
     38 H6         -0.4444   -1.5483    2.7778 H         1 <0>         0.0655
     39 H7         -2.6748   -1.0620    2.0682 H         1 <0>         0.0638
     40 H8         -3.4834    0.6189   -1.1415 H         1 <0>         0.1564
     41 H9         -5.4922    0.7677   -1.2198 H         1 <0>         0.1579
     42 H10         4.2060    3.3477    0.2397 H         1 <0>         0.0660
     43 H11         5.7182    3.3540   -0.7260 H         1 <0>         0.0660
     44 H12         5.6557    4.1777    0.8476 H         1 <0>         0.0660
     45 H13         9.4027    1.1071   -0.5517 H         1 <0>         0.0660
     46 H14         8.4209    0.8580    0.9087 H         1 <0>         0.0660
     47 H15         8.7533   -0.5104   -0.2033 H         1 <0>         0.0660
     48 H16        -8.0062    1.2026   -1.8080 H         1 <0>         0.0687
     49 H17       -11.0882    1.2446    0.3911 H         1 <0>         0.0309
     50 H18       -10.8109    1.1223   -1.3539 H         1 <0>         0.0309
     51 H19       -11.1731   -0.3345   -0.4138 H         1 <0>         0.0309
@<TRIPOS>BOND
     1    1   24 1
     2    2   13 1
     3    2   19 1
     4    3   15 1
     5    3   27 1
     6    4   17 1
     7    4   29 1
     8    5   10 1
     9    5   31 1
    10    6   26 2
    11    7   12 ar
    12    7   20 ar
    13    8   21 1
    14    8   26 am
    15    8   40 1
    16    9   26 am
    17    9   28 1
    18    9   41 1
    19   10   28 2
    20   11   12 ar
    21   11   13 ar
    22   11   14 ar
    23   12   16 ar
    24   13   18 ar
    25   14   15 ar
    26   14   33 1
    27   15   17 ar
    28   16   17 ar
    29   16   34 1
    30   18   20 ar
    31   18   35 1
    32   19   22 ar
    33   19   23 ar
    34   20   36 1
    35   21   24 ar
    36   21   25 ar
    37   22   24 ar
    38   22   37 1
    39   23   25 ar
    40   23   38 1
    41   25   39 1
    42   27   42 1
    43   27   43 1
    44   27   44 1
    45   28   30 1
    46   29   45 1
    47   29   46 1
    48   29   47 1
    49   30   31 2
    50   30   48 1
    51   31   32 1
    52   32   49 1
    53   32   50 1
    54   32   51 1
