@<TRIPOS>MOLECULE
DB11263
   50    52     0     0     0
SMALL
USER_CHARGES

@<TRIPOS>ATOM
      1 O1         -2.0650    0.6944    0.7093 O.3       1 <0>        -0.3313
      2 O2         -6.0664    1.2093   -0.0587 O.3       1 <0>        -0.3864
      3 O3         -4.1740    3.2378   -0.8707 O.3       1 <0>        -0.3865
      4 O4         -2.3557   -1.5901    1.0848 O.3       1 <0>        -0.4607
      5 O5         -4.8514   -1.4684   -0.2436 O.3       1 <0>        -0.3829
      6 O6         -0.1536    2.6272    0.3000 O.3       1 <0>        -0.3924
      7 O7         -0.3278   -5.6959   -0.2623 O.3       1 <0>        -0.5066
      8 O8          7.5509    2.2161   -0.2672 O.3       1 <0>        -0.5068
      9 C1         -3.8671    2.1516   -0.0005 C.3       1 <0>         0.1120
     10 C2         -4.7053    0.9356   -0.3948 C.3       1 <0>         0.1152
     11 C3         -2.3727    1.8347   -0.0943 C.3       1 <0>         0.1140
     12 C4         -4.2411   -0.3198    0.3441 C.3       1 <0>         0.1454
     13 C5         -2.7241   -0.4865    0.2579 C.3       1 <0>         0.2308
     14 C6         -1.5171    2.9944    0.4059 C.3       1 <0>         0.0731
     15 C7         -1.2461   -2.2950    0.7065 C.ar      1 <0>         0.1280
     16 C8         -0.0153   -1.6515    0.6186 C.ar      1 <0>        -0.0124
     17 C9         -1.3565   -3.6507    0.4123 C.ar      1 <0>         0.0217
     18 C10         1.1159   -2.3706    0.2326 C.ar      1 <0>        -0.0181
     19 C11        -0.2251   -4.3695    0.0265 C.ar      1 <0>         0.1209
     20 C12         1.0109   -3.7296   -0.0634 C.ar      1 <0>        -0.0128
     21 C13         2.4048   -1.7033    0.1390 C.2       1 <0>        -0.0538
     22 C14         2.5844   -0.3665    0.0200 C.2       1 <0>        -0.0540
     23 C15         3.8905    0.3120   -0.0553 C.ar      1 <0>        -0.0248
     24 C16         5.0125   -0.4139   -0.4204 C.ar      1 <0>        -0.0511
     25 C17         3.9700    1.6630    0.2403 C.ar      1 <0>        -0.0511
     26 C18         6.2483    0.2291   -0.4917 C.ar      1 <0>        -0.0196
     27 C19         5.2058    2.3062    0.1690 C.ar      1 <0>        -0.0196
     28 C20         6.3451    1.5891   -0.1971 C.ar      1 <0>         0.1169
     29 H1         -4.6806    0.7759   -1.4799 H         1 <0>         0.0648
     30 H2         -4.1321    2.4622    1.0176 H         1 <0>         0.0647
     31 H3         -2.0789    1.6198   -1.1309 H         1 <0>         0.0647
     32 H4         -4.5681   -0.2873    1.3902 H         1 <0>         0.0683
     33 H5         -2.4317   -0.6974   -0.7816 H         1 <0>         0.1084
     34 H6         -1.7219    3.2202    1.4578 H         1 <0>         0.0584
     35 H7         -1.6767    3.8998   -0.1865 H         1 <0>         0.0584
     36 H8         -6.3262    2.0180   -0.5324 H         1 <0>         0.2100
     37 H9         -3.9350    2.9742   -1.7758 H         1 <0>         0.2100
     38 H10        -4.5712   -1.5164   -1.1737 H         1 <0>         0.2102
     39 H11        -0.0190    1.8379    0.8516 H         1 <0>         0.2095
     40 H12         0.0501   -0.6062    0.8986 H         1 <0>         0.0660
     41 H13        -2.3206   -4.1477    0.4821 H         1 <0>         0.0691
     42 H14         1.8895   -4.2953   -0.3665 H         1 <0>         0.0660
     43 H15         3.2587   -2.3721    0.1998 H         1 <0>         0.0624
     44 H16         1.7332    0.3055   -0.0421 H         1 <0>         0.0624
     45 H17         0.5499   -6.0338   -0.5104 H         1 <0>         0.2921
     46 H18         4.9811   -1.4670   -0.6804 H         1 <0>         0.0625
     47 H19         3.0921    2.2349    0.5285 H         1 <0>         0.0625
     48 H20         7.1317   -0.3331   -0.7821 H         1 <0>         0.0654
     49 H21         5.2679    3.3660    0.4013 H         1 <0>         0.0654
     50 H22         7.4332    3.1525   -0.0319 H         1 <0>         0.2921
@<TRIPOS>BOND
     1    1   11 1
     2    1   13 1
     3    2   10 1
     4    2   36 1
     5    3    9 1
     6    3   37 1
     7    4   13 1
     8    4   15 1
     9    5   12 1
    10    5   38 1
    11    6   14 1
    12    6   39 1
    13    7   19 1
    14    7   45 1
    15    8   28 1
    16    8   50 1
    17    9   10 1
    18    9   11 1
    19    9   30 1
    20   10   12 1
    21   10   29 1
    22   11   14 1
    23   11   31 1
    24   12   13 1
    25   12   32 1
    26   13   33 1
    27   14   34 1
    28   14   35 1
    29   15   16 ar
    30   15   17 ar
    31   16   18 ar
    32   16   40 1
    33   17   19 ar
    34   17   41 1
    35   18   20 ar
    36   18   21 1
    37   19   20 ar
    38   20   42 1
    39   21   22 2
    40   21   43 1
    41   22   23 1
    42   22   44 1
    43   23   24 ar
    44   23   25 ar
    45   24   26 ar
    46   24   46 1
    47   25   27 ar
    48   25   47 1
    49   26   28 ar
    50   26   48 1
    51   27   28 ar
    52   27   49 1
