@<TRIPOS>MOLECULE
DB11886
   69    72     0     0     0
SMALL
USER_CHARGES

@<TRIPOS>ATOM
      1 Cl1        -1.6126    0.4757    2.6281 Cl        1 <0>        -0.0778
      2 Cl2        -3.1608    3.3535   -1.7225 Cl        1 <0>        -0.0778
      3 O1         -0.5788    4.7583   -1.2754 O.3       1 <0>        -0.4935
      4 O2          0.7728    2.2495    2.5145 O.3       1 <0>        -0.4935
      5 O3         -4.4383    1.6995    2.4343 O.2       1 <0>        -0.2519
      6 N1          5.1840   -0.9570    0.1347 N.3       1 <0>        -0.2996
      7 N2          2.4084   -1.5479   -0.1911 N.pl3     1 <0>        -0.3274
      8 N3         -2.8909   -3.1696   -0.9911 N.pl3     1 <0>        -0.2993
      9 N4         -5.1434   -2.8856   -1.6865 N.ar      1 <0>        -0.2205
     10 N5         -5.5621    0.2494    0.9681 N.am      1 <0>        -0.2427
     11 N6         -6.4928   -1.1553   -0.6903 N.ar      1 <0>        -0.2202
     12 N7         -3.4527    1.2341    0.3823 N.am      1 <0>        -0.2663
     13 C1          4.3652   -0.1847   -0.8077 C.3       1 <0>         0.0147
     14 C2          4.3705   -1.3605    1.2885 C.3       1 <0>         0.0147
     15 C3          3.1821   -1.0126   -1.3155 C.3       1 <0>         0.0250
     16 C4          3.1885   -2.2283    0.8503 C.3       1 <0>         0.0250
     17 C5          6.3400   -0.1745    0.5708 C.3       1 <0>        -0.0038
     18 C6          1.0839   -1.9530   -0.3903 C.ar      1 <0>         0.0299
     19 C7          7.2174    0.2120   -0.6078 C.3       1 <0>        -0.0524
     20 C8          0.1340   -1.0356   -0.8399 C.ar      1 <0>        -0.0389
     21 C9          0.7134   -3.2742   -0.1397 C.ar      1 <0>        -0.0389
     22 C10        -1.1862   -1.4393   -1.0385 C.ar      1 <0>        -0.0388
     23 C11        -0.6069   -3.6780   -0.3383 C.ar      1 <0>        -0.0388
     24 C12        -1.5566   -2.7606   -0.7878 C.ar      1 <0>         0.0325
     25 C13        -4.1215   -2.4904   -0.8993 C.ar      1 <0>         0.1279
     26 C14        -4.2072   -1.4509    0.0042 C.ar      1 <0>         0.0188
     27 C15        -5.4294   -0.8131    0.0663 C.ar      1 <0>         0.1334
     28 C16        -6.2832   -2.1850   -1.5325 C.ar      1 <0>         0.1201
     29 C17        -4.4559    1.1117    1.3518 C.2       1 <0>         0.3116
     30 C18        -2.2620    1.9961    0.4629 C.ar      1 <0>         0.0788
     31 C19        -6.9148    0.5837    1.5104 C.3       1 <0>         0.0111
     32 C20        -1.3310    1.7321    1.4674 C.ar      1 <0>         0.1053
     33 C21        -2.0195    3.0101   -0.4639 C.ar      1 <0>         0.1053
     34 C22        -0.8460    3.7601   -0.3859 C.ar      1 <0>         0.1437
     35 C23        -0.1576    2.4823    1.5455 C.ar      1 <0>         0.1437
     36 C24         0.0848    3.4962    0.6187 C.ar      1 <0>         0.0248
     37 C25         0.1314    4.3976   -2.4580 C.3       1 <0>         0.0789
     38 C26         1.7978    1.3052    2.2132 C.3       1 <0>         0.0789
     39 H1          4.0052   -0.4806    1.8316 H         1 <0>         0.0442
     40 H2          4.9794   -1.9437    1.9901 H         1 <0>         0.0442
     41 H3          4.9335    0.1006   -1.6986 H         1 <0>         0.0442
     42 H4          3.9977    0.7385   -0.3409 H         1 <0>         0.0442
     43 H5          2.5718   -2.4255    1.7363 H         1 <0>         0.0476
     44 H6          3.5620   -3.1885    0.4714 H         1 <0>         0.0476
     45 H7          3.5397   -1.8445   -1.9360 H         1 <0>         0.0476
     46 H8          2.5651   -0.3725   -1.9567 H         1 <0>         0.0476
     47 H9          6.9454   -0.7821    1.2548 H         1 <0>         0.0424
     48 H10         6.0396    0.7281    1.1178 H         1 <0>         0.0424
     49 H11         7.4202   -0.6431   -1.2616 H         1 <0>         0.0242
     50 H12         6.7864    1.0222   -1.2035 H         1 <0>         0.0242
     51 H13         8.1831    0.5761   -0.2393 H         1 <0>         0.0242
     52 H14         0.4030   -0.0007   -1.0351 H         1 <0>         0.0637
     53 H15         1.4266   -4.0218    0.1946 H         1 <0>         0.0637
     54 H16        -1.8972   -0.7101   -1.4159 H         1 <0>         0.0637
     55 H17        -0.8842   -4.7108   -0.1432 H         1 <0>         0.0637
     56 H18        -2.9616   -4.0448   -1.5027 H         1 <0>         0.1536
     57 H19        -3.3920   -1.2268    0.6790 H         1 <0>         0.0687
     58 H20        -7.1206   -2.4811   -2.1523 H         1 <0>         0.1048
     59 H21        -6.8480    1.3805    2.2552 H         1 <0>         0.0433
     60 H22        -7.5472    0.9245    0.6853 H         1 <0>         0.0433
     61 H23        -7.3394   -0.3128    1.9711 H         1 <0>         0.0433
     62 H24        -3.8042    1.1384   -0.5687 H         1 <0>         0.1565
     63 H25         0.9990    4.0818    0.6803 H         1 <0>         0.0692
     64 H26        -0.3791    3.5943   -2.9981 H         1 <0>         0.0660
     65 H27         0.1841    5.2760   -3.1070 H         1 <0>         0.0660
     66 H28         1.1508    4.0876   -2.2067 H         1 <0>         0.0660
     67 H29         2.4835    1.2631    3.0637 H         1 <0>         0.0660
     68 H30         2.3589    1.6181    1.3275 H         1 <0>         0.0660
     69 H31         1.3746    0.3090    2.0577 H         1 <0>         0.0660
@<TRIPOS>BOND
     1    1   32 1
     2    2   33 1
     3    3   34 1
     4    3   37 1
     5    4   35 1
     6    4   38 1
     7    5   29 2
     8    6   13 1
     9    6   14 1
    10    6   17 1
    11    7   15 1
    12    7   16 1
    13    7   18 1
    14    8   24 1
    15    8   25 1
    16    8   56 1
    17    9   25 ar
    18    9   28 ar
    19   10   27 1
    20   10   29 am
    21   10   31 1
    22   11   27 ar
    23   11   28 ar
    24   12   29 am
    25   12   30 1
    26   12   62 1
    27   13   15 1
    28   13   41 1
    29   13   42 1
    30   14   16 1
    31   14   39 1
    32   14   40 1
    33   15   45 1
    34   15   46 1
    35   16   43 1
    36   16   44 1
    37   17   19 1
    38   17   47 1
    39   17   48 1
    40   18   20 ar
    41   18   21 ar
    42   19   49 1
    43   19   50 1
    44   19   51 1
    45   20   22 ar
    46   20   52 1
    47   21   23 ar
    48   21   53 1
    49   22   24 ar
    50   22   54 1
    51   23   24 ar
    52   23   55 1
    53   25   26 ar
    54   26   27 ar
    55   26   57 1
    56   28   58 1
    57   30   32 ar
    58   30   33 ar
    59   31   59 1
    60   31   60 1
    61   31   61 1
    62   32   35 ar
    63   33   34 ar
    64   34   36 ar
    65   35   36 ar
    66   36   63 1
    67   37   64 1
    68   37   65 1
    69   37   66 1
    70   38   67 1
    71   38   68 1
    72   38   69 1
