@<TRIPOS>MOLECULE
DB11855
   87    91     0     0     0
SMALL
USER_CHARGES

@<TRIPOS>ATOM
      1 O1         -2.0268   -1.2062    1.4618 O.3       1 <0>        -0.4468
      2 O2          5.0490    5.7464    0.8342 O.2       1 <0>        -0.2757
      3 O3          3.7213   -4.5297   -2.8090 O.2       1 <0>        -0.2700
      4 O4         -2.1512    0.9025    2.3383 O.2       1 <0>        -0.2261
      5 N1          1.8111   -2.7666    2.3380 N.3       1 <0>        -0.3006
      6 N2          2.6670    2.5170   -1.6072 N.3       1 <0>        -0.2981
      7 N3          3.6901   -4.3644   -0.4774 N.am      1 <0>        -0.2994
      8 N4          3.2356    6.1247    2.1992 N.am      1 <0>        -0.3291
      9 N5         -3.7649    0.0783    0.8560 N.am      1 <0>        -0.2506
     10 C1          2.9521    4.7779    0.2247 C.3       1 <0>         0.0377
     11 C2          3.4151    4.8442   -1.2293 C.3       1 <0>        -0.0290
     12 C3          2.9397    3.3305    0.7131 C.3       1 <0>        -0.0290
     13 C4         -0.8227   -1.4299    2.1846 C.3       1 <0>         0.1070
     14 C5          0.3591   -0.9736    1.3341 C.3       1 <0>        -0.0028
     15 C6         -0.6932   -2.9097    2.5361 C.3       1 <0>        -0.0028
     16 C7          2.6040    3.8950   -2.1135 C.3       1 <0>        -0.0001
     17 C8          2.1457    2.4313   -0.2360 C.3       1 <0>        -0.0001
     18 C9          1.6903   -1.3444    1.9900 C.3       1 <0>         0.0023
     19 C10         0.6732   -3.2165    3.1513 C.3       1 <0>         0.0023
     20 C11         2.0156   -3.6078    1.1610 C.3       1 <0>         0.0147
     21 C12         1.9315    1.6131   -2.4914 C.3       1 <0>         0.0240
     22 C13         3.4658   -3.5367    0.7060 C.3       1 <0>         0.0274
     23 C14         3.8580    5.5934    1.0944 C.2       1 <0>         0.2137
     24 C15         2.3536    0.1800   -2.3053 C.ar      1 <0>        -0.0333
     25 C16         3.7077   -0.1438   -2.2203 C.ar      1 <0>        -0.0566
     26 C17         1.3894   -0.8245   -2.2183 C.ar      1 <0>        -0.0566
     27 C18         3.5404   -3.8611   -1.7827 C.2       1 <0>         0.2464
     28 C19         3.1338   -2.4762   -1.9608 C.ar      1 <0>         0.0369
     29 C20        -2.6154    0.0252    1.6204 C.2       1 <0>         0.4048
     30 C21         4.0977   -1.4717   -2.0480 C.ar      1 <0>        -0.0493
     31 C22         1.7795   -2.1527   -2.0459 C.ar      1 <0>        -0.0493
     32 C23         4.0786   -5.7435   -0.2180 C.3       1 <0>         0.0035
     33 C24        -4.6732    1.1531    0.7236 C.ar      1 <0>         0.0441
     34 C25        -5.7996    1.0553   -0.0934 C.ar      1 <0>         0.0034
     35 C26        -4.4249    2.3295    1.4310 C.ar      1 <0>        -0.0398
     36 C27        -6.0852   -0.1540   -0.8416 C.ar      1 <0>        -0.0161
     37 C28        -6.6775    2.1337   -0.2028 C.ar      1 <0>        -0.0523
     38 C29        -5.3029    3.4078    1.3215 C.ar      1 <0>        -0.0600
     39 C30        -6.4291    3.3099    0.5047 C.ar      1 <0>        -0.0611
     40 C31        -5.5833   -0.3096   -2.1338 C.ar      1 <0>        -0.0540
     41 C32        -6.8614   -1.1618   -0.2689 C.ar      1 <0>        -0.0540
     42 C33        -5.8577   -1.4727   -2.8533 C.ar      1 <0>        -0.0612
     43 C34        -7.1356   -2.3248   -0.9885 C.ar      1 <0>        -0.0612
     44 C35        -6.6338   -2.4802   -2.2807 C.ar      1 <0>        -0.0617
     45 H1          1.9339    5.1855    0.2824 H         1 <0>         0.0395
     46 H2          4.4779    4.5794   -1.3126 H         1 <0>         0.0285
     47 H3          3.3212    5.8699   -1.6071 H         1 <0>         0.0285
     48 H4          2.5034    3.2742    1.7181 H         1 <0>         0.0285
     49 H5          3.9670    2.9514    0.8024 H         1 <0>         0.0285
     50 H6         -0.8292   -0.8721    3.1311 H         1 <0>         0.0735
     51 H7          0.3123    0.1114    1.1841 H         1 <0>         0.0313
     52 H8          0.2747   -1.4106    0.3354 H         1 <0>         0.0313
     53 H9         -0.8546   -3.5214    1.6392 H         1 <0>         0.0313
     54 H10        -1.4914   -3.1933    3.2330 H         1 <0>         0.0313
     55 H11         3.0209    3.9403   -3.1270 H         1 <0>         0.0427
     56 H12         1.5641    4.2423   -2.1725 H         1 <0>         0.0427
     57 H13         1.0841    2.7103   -0.2006 H         1 <0>         0.0427
     58 H14         2.2240    1.4058    0.1419 H         1 <0>         0.0427
     59 H15         2.5158   -1.0115    1.3524 H         1 <0>         0.0428
     60 H16         1.7974   -0.7611    2.9143 H         1 <0>         0.0428
     61 H17         0.7373   -2.7217    4.1294 H         1 <0>         0.0428
     62 H18         0.7529   -4.2890    3.3673 H         1 <0>         0.0428
     63 H19         1.3131   -3.3818    0.3558 H         1 <0>         0.0442
     64 H20         1.8174   -4.6555    1.4244 H         1 <0>         0.0442
     65 H21         0.8471    1.7309   -2.3640 H         1 <0>         0.0476
     66 H22         2.1443    1.8514   -3.5427 H         1 <0>         0.0476
     67 H23         4.1349   -3.8879    1.5020 H         1 <0>         0.0477
     68 H24         3.7725   -2.5113    0.4905 H         1 <0>         0.0477
     69 H25         4.4760    0.6209   -2.2976 H         1 <0>         0.0621
     70 H26         0.3312   -0.5869   -2.2857 H         1 <0>         0.0621
     71 H27         3.7501    6.6919    2.8646 H         1 <0>         0.1449
     72 H28         2.2519    5.9719    2.3972 H         1 <0>         0.1449
     73 H29         5.1556   -1.7132   -1.9855 H         1 <0>         0.0625
     74 H30         1.0190   -2.9271   -1.9903 H         1 <0>         0.0625
     75 H31         3.3042   -6.2311    0.3799 H         1 <0>         0.0429
     76 H32         4.2055   -6.2956   -1.1527 H         1 <0>         0.0429
     77 H33         5.0266   -5.7487    0.3276 H         1 <0>         0.0429
     78 H34        -3.9749   -0.7636    0.3275 H         1 <0>         0.1582
     79 H35        -3.5793    2.4895    2.0837 H         1 <0>         0.0636
     80 H36        -7.5608    2.0762   -0.8347 H         1 <0>         0.0624
     81 H37        -5.1109    4.3245    1.8718 H         1 <0>         0.0618
     82 H38        -7.1126    4.1496    0.4196 H         1 <0>         0.0618
     83 H39        -4.9759    0.4657   -2.5947 H         1 <0>         0.0624
     84 H40        -7.2598   -1.0569    0.7375 H         1 <0>         0.0624
     85 H41        -5.4666   -1.5939   -3.8593 H         1 <0>         0.0618
     86 H42        -7.7396   -3.1097   -0.5427 H         1 <0>         0.0618
     87 H43        -6.8471   -3.3859   -2.8409 H         1 <0>         0.0618
@<TRIPOS>BOND
     1    1   13 1
     2    1   29 1
     3    2   23 2
     4    3   27 2
     5    4   29 2
     6    5   18 1
     7    5   19 1
     8    5   20 1
     9    6   16 1
    10    6   17 1
    11    6   21 1
    12    7   22 1
    13    7   27 am
    14    7   32 1
    15    8   23 am
    16    8   71 1
    17    8   72 1
    18    9   29 am
    19    9   33 1
    20    9   78 1
    21   10   11 1
    22   10   12 1
    23   10   23 1
    24   10   45 1
    25   11   16 1
    26   11   46 1
    27   11   47 1
    28   12   17 1
    29   12   48 1
    30   12   49 1
    31   13   14 1
    32   13   15 1
    33   13   50 1
    34   14   18 1
    35   14   51 1
    36   14   52 1
    37   15   19 1
    38   15   53 1
    39   15   54 1
    40   16   55 1
    41   16   56 1
    42   17   57 1
    43   17   58 1
    44   18   59 1
    45   18   60 1
    46   19   61 1
    47   19   62 1
    48   20   22 1
    49   20   63 1
    50   20   64 1
    51   21   24 1
    52   21   65 1
    53   21   66 1
    54   22   67 1
    55   22   68 1
    56   24   25 ar
    57   24   26 ar
    58   25   30 ar
    59   25   69 1
    60   26   31 ar
    61   26   70 1
    62   27   28 1
    63   28   30 ar
    64   28   31 ar
    65   30   73 1
    66   31   74 1
    67   32   75 1
    68   32   76 1
    69   32   77 1
    70   33   34 ar
    71   33   35 ar
    72   34   36 1
    73   34   37 ar
    74   35   38 ar
    75   35   79 1
    76   36   40 ar
    77   36   41 ar
    78   37   39 ar
    79   37   80 1
    80   38   39 ar
    81   38   81 1
    82   39   82 1
    83   40   42 ar
    84   40   83 1
    85   41   43 ar
    86   41   84 1
    87   42   44 ar
    88   42   85 1
    89   43   44 ar
    90   43   86 1
    91   44   87 1
