@<TRIPOS>MOLECULE
DB11254
   32    32     0     0     0
SMALL
USER_CHARGES

@<TRIPOS>ATOM
      1 O1         -2.2324   -2.2787   -0.3662 O.3       1 <0>        -0.5064
      2 O2         -5.9258    0.3544    1.0966 O.3       1 <0>        -0.5066
      3 C1          1.7315   -0.0255   -0.6643 C.3       1 <0>        -0.0528
      4 C2          0.3339    0.0819   -0.0514 C.3       1 <0>        -0.0489
      5 C3          2.8172    0.0498    0.4103 C.3       1 <0>        -0.0533
      6 C4         -0.7500    0.0405   -1.1308 C.3       1 <0>        -0.0242
      7 C5          4.2146   -0.0238   -0.2046 C.3       1 <0>        -0.0559
      8 C6         -2.1326    0.1098   -0.5346 C.ar      1 <0>        -0.0057
      9 C7          5.2968    0.0849    0.8576 C.3       1 <0>        -0.0653
     10 C8         -2.8016   -1.0542   -0.1842 C.ar      1 <0>         0.1235
     11 C9         -2.7163    1.3548   -0.3459 C.ar      1 <0>        -0.0517
     12 C10        -4.0805   -0.9719    0.3663 C.ar      1 <0>         0.0216
     13 C11        -3.9953    1.4372    0.2045 C.ar      1 <0>        -0.0197
     14 C12        -4.6774    0.2737    0.5607 C.ar      1 <0>         0.1203
     15 H1          1.8215   -0.9708   -1.2130 H         1 <0>         0.0265
     16 H2          1.8764    0.7849   -1.3891 H         1 <0>         0.0265
     17 H3          0.2535    1.0160    0.5194 H         1 <0>         0.0268
     18 H4          0.1871   -0.7368    0.6640 H         1 <0>         0.0268
     19 H5          2.6855   -0.7709    1.1257 H         1 <0>         0.0265
     20 H6          2.7133    0.9868    0.9712 H         1 <0>         0.0265
     21 H7         -0.6132    0.8940   -1.8093 H         1 <0>         0.0314
     22 H8         -0.6381   -0.8385   -1.7766 H         1 <0>         0.0314
     23 H9          4.3336   -0.9695   -0.7459 H         1 <0>         0.0263
     24 H10         4.3448    0.7855   -0.9326 H         1 <0>         0.0263
     25 H11         6.2878    0.0286    0.3963 H         1 <0>         0.0230
     26 H12         5.2257    1.0363    1.3944 H         1 <0>         0.0230
     27 H13         5.2144   -0.7280    1.5860 H         1 <0>         0.0230
     28 H14        -2.1937    2.2678   -0.6172 H         1 <0>         0.0623
     29 H15        -4.6072   -1.8823    0.6420 H         1 <0>         0.0691
     30 H16        -4.4548    2.4104    0.3538 H         1 <0>         0.0654
     31 H17        -1.2711   -2.2017   -0.4661 H         1 <0>         0.2921
     32 H18        -6.2477   -0.5445    1.2827 H         1 <0>         0.2921
@<TRIPOS>BOND
     1    1   10 1
     2    1   31 1
     3    2   14 1
     4    2   32 1
     5    3    4 1
     6    3    5 1
     7    3   15 1
     8    3   16 1
     9    4    6 1
    10    4   17 1
    11    4   18 1
    12    5    7 1
    13    5   19 1
    14    5   20 1
    15    6    8 1
    16    6   21 1
    17    6   22 1
    18    7    9 1
    19    7   23 1
    20    7   24 1
    21    8   10 ar
    22    8   11 ar
    23    9   25 1
    24    9   26 1
    25    9   27 1
    26   10   12 ar
    27   11   13 ar
    28   11   28 1
    29   12   14 ar
    30   12   29 1
    31   13   14 ar
    32   13   30 1
