@<TRIPOS>MOLECULE
DB11768
   31    31     0     0     0
SMALL
USER_CHARGES

@<TRIPOS>ATOM
      1 Cl1        -3.3075   -2.8641    0.4325 Cl        1 <0>        -0.0797
      2 Cl2        -5.7065    1.9570    0.5499 Cl        1 <0>        -0.0835
      3 S1          0.4087   -0.2057   -3.0292 S.2       1 <0>         0.0222
      4 P1          0.4728   -0.7456   -1.1458 P.3       1 <0>         0.2943
      5 O1         -0.9517   -1.2990   -0.5859 O.3       1 <0>        -0.4330
      6 O2          1.3607   -2.0990   -0.9148 O.3       1 <0>        -0.3143
      7 N1          1.0376    0.3468   -0.0203 N.pl3     1 <0>        -0.2364
      8 C1          2.3069    1.0269   -0.2305 C.3       1 <0>         0.0106
      9 C2          3.4686    0.0765    0.0458 C.3       1 <0>        -0.0495
     10 C3          2.3793    2.2567    0.6691 C.3       1 <0>        -0.0495
     11 C4         -2.0718   -0.5590   -0.3144 C.ar      1 <0>         0.1470
     12 C5         -3.2315   -1.1619    0.1632 C.ar      1 <0>         0.0843
     13 C6         -2.0273    0.8157   -0.5269 C.ar      1 <0>        -0.0167
     14 C7          1.3404   -2.7655    0.3372 C.3       1 <0>         0.0455
     15 C8         -4.3572   -0.3830    0.4308 C.ar      1 <0>        -0.0215
     16 C9         -3.1531    1.5945   -0.2593 C.ar      1 <0>        -0.0398
     17 C10        -4.3180    0.9953    0.2196 C.ar      1 <0>         0.0426
     18 H1          2.3775    1.3793   -1.2648 H         1 <0>         0.0459
     19 H2          0.9396    0.0914    0.9615 H         1 <0>         0.1324
     20 H3          4.4235    0.6088   -0.0299 H         1 <0>         0.0245
     21 H4          3.4106   -0.3534    1.0518 H         1 <0>         0.0245
     22 H5          3.5025   -0.7415   -0.6793 H         1 <0>         0.0245
     23 H6          1.5508    2.9434    0.4618 H         1 <0>         0.0245
     24 H7          3.3132    2.8041    0.5019 H         1 <0>         0.0245
     25 H8          2.3359    1.9842    1.7297 H         1 <0>         0.0245
     26 H9         -1.1569    1.3372   -0.9026 H         1 <0>         0.0655
     27 H10         1.4766   -2.0664    1.1644 H         1 <0>         0.0529
     28 H11         2.1573   -3.4913    0.3548 H         1 <0>         0.0529
     29 H12         0.3949   -3.3007    0.4555 H         1 <0>         0.0529
     30 H13        -5.2665   -0.8493    0.8043 H         1 <0>         0.0648
     31 H14        -3.1093    2.6673   -0.4299 H         1 <0>         0.0633
@<TRIPOS>BOND
     1    1   12 1
     2    2   17 1
     3    3    4 2
     4    4    5 1
     5    4    6 1
     6    4    7 1
     7    5   11 1
     8    6   14 1
     9    7    8 1
    10    7   19 1
    11    8    9 1
    12    8   10 1
    13    8   18 1
    14    9   20 1
    15    9   21 1
    16    9   22 1
    17   10   23 1
    18   10   24 1
    19   10   25 1
    20   11   12 ar
    21   11   13 ar
    22   12   15 ar
    23   13   16 ar
    24   13   26 1
    25   14   27 1
    26   14   28 1
    27   14   29 1
    28   15   17 ar
    29   15   30 1
    30   16   17 ar
    31   16   31 1
