@<TRIPOS>MOLECULE
DB11793
   44    47     0     0     0
SMALL
USER_CHARGES

@<TRIPOS>ATOM
      1 O1         -6.3339    3.0699    0.0750 O.2       1 <0>        -0.2703
      2 N1          5.5762    0.0673   -1.3151 N.3       1 <0>        -0.3154
      3 N2         -2.1453   -0.6235   -0.0131 N.pl3     1 <0>        -0.2387
      4 N3         -2.8263    0.5389    0.0056 N.2       1 <0>        -0.1656
      5 N4         -4.0411    3.0526    0.0440 N.am      1 <0>        -0.3253
      6 C1          3.5445   -0.5904   -0.0516 C.3       1 <0>        -0.0033
      7 C2          4.1194    0.0540    1.2207 C.3       1 <0>        -0.0439
      8 C3          4.1113    0.0932   -1.3098 C.3       1 <0>         0.0027
      9 C4          5.6443    0.0916    1.1555 C.3       1 <0>        -0.0399
     10 C5          6.1282    0.7407   -0.1392 C.3       1 <0>        -0.0041
     11 C6          2.0269   -0.5991   -0.0424 C.ar      1 <0>        -0.0429
     12 C7          1.3363   -1.8110   -0.0531 C.ar      1 <0>        -0.0563
     13 C8          1.3225    0.6047   -0.0213 C.ar      1 <0>        -0.0563
     14 C9         -0.7627   -0.6153   -0.0220 C.ar      1 <0>         0.0654
     15 C10        -0.0585   -1.8192   -0.0429 C.ar      1 <0>        -0.0360
     16 C11        -0.0723    0.5966   -0.0113 C.ar      1 <0>        -0.0360
     17 C12        -4.2058   -1.2659   -0.0098 C.2       1 <0>         0.0209
     18 C13        -2.9257   -1.7426   -0.0230 C.2       1 <0>         0.0390
     19 C14        -4.1210    0.1749    0.0079 C.2       1 <0>         0.1052
     20 C15        -5.2887    0.9600    0.0241 C.2       1 <0>         0.0641
     21 C16        -5.3588   -2.0406   -0.0133 C.2       1 <0>        -0.0510
     22 C17        -6.4793    0.2008    0.0215 C.2       1 <0>        -0.0475
     23 C18        -6.5106   -1.2294    0.0036 C.2       1 <0>        -0.0603
     24 C19        -5.2780    2.4070    0.0431 C.2       1 <0>         0.2437
     25 H1          3.8892   -1.6351   -0.0673 H         1 <0>         0.0361
     26 H2          3.8005   -0.5044    2.1092 H         1 <0>         0.0272
     27 H3          3.7479    1.0790    1.3439 H         1 <0>         0.0272
     28 H4          3.7514   -0.4303   -2.2037 H         1 <0>         0.0430
     29 H5          3.7656    1.1308   -1.3952 H         1 <0>         0.0430
     30 H6          6.0372    0.6441    2.0166 H         1 <0>         0.0278
     31 H7          6.0380   -0.9304    1.2252 H         1 <0>         0.0278
     32 H8          5.8605    1.8043   -0.1538 H         1 <0>         0.0424
     33 H9          7.2214    0.6852   -0.1808 H         1 <0>         0.0424
     34 H10         5.9167    0.5296   -2.1577 H         1 <0>         0.1220
     35 H11         1.8712   -2.7569   -0.0691 H         1 <0>         0.0621
     36 H12         1.8399    1.5601   -0.0132 H         1 <0>         0.0621
     37 H13        -0.5328   -2.7942   -0.0522 H         1 <0>         0.0639
     38 H14        -0.5799    1.5576    0.0048 H         1 <0>         0.0639
     39 H15        -2.5607   -2.7596   -0.0379 H         1 <0>         0.0837
     40 H16        -5.3964   -3.1208   -0.0269 H         1 <0>         0.0625
     41 H17        -7.4405    0.7152    0.0335 H         1 <0>         0.0626
     42 H18        -7.4849   -1.7174    0.0029 H         1 <0>         0.0618
     43 H19        -3.1537    2.5620    0.0252 H         1 <0>         0.1453
     44 H20        -3.9921    4.0660    0.0633 H         1 <0>         0.1453
@<TRIPOS>BOND
     1    1   24 2
     2    2    8 1
     3    2   10 1
     4    2   34 1
     5    3    4 1
     6    3   14 1
     7    3   18 2
     8    4   19 2
     9    5   24 am
    10    5   43 1
    11    5   44 1
    12    6    7 1
    13    6    8 1
    14    6   11 1
    15    6   25 1
    16    7    9 1
    17    7   26 1
    18    7   27 1
    19    8   28 1
    20    8   29 1
    21    9   10 1
    22    9   30 1
    23    9   31 1
    24   10   32 1
    25   10   33 1
    26   11   12 ar
    27   11   13 ar
    28   12   15 ar
    29   12   35 1
    30   13   16 ar
    31   13   36 1
    32   14   15 ar
    33   14   16 ar
    34   15   37 1
    35   16   38 1
    36   17   18 1
    37   17   19 1
    38   17   21 2
    39   18   39 1
    40   19   20 2
    41   20   22 1
    42   20   24 1
    43   21   23 1
    44   21   40 1
    45   22   23 2
    46   22   41 1
    47   23   42 1
