@<TRIPOS>MOLECULE
DB11496
   15    16     0     0     0
SMALL
USER_CHARGES

@<TRIPOS>ATOM
      1 S1         -1.6834   -1.9118   -0.0002 S.3       1 <0>        -0.0621
      2 S2         -4.3192   -0.3675    0.0007 S.2       1 <0>        -0.0250
      3 N1         -1.8260    0.6762   -0.0002 N.pl3     1 <0>        -0.3428
      4 C1         -0.4561    0.3904   -0.0003 C.ar      1 <0>         0.0543
      5 C2         -0.1780   -0.9748   -0.0003 C.ar      1 <0>         0.0379
      6 C3          0.5536    1.3379   -0.0001 C.ar      1 <0>        -0.0372
      7 C4          1.1282   -1.4331   -0.0001 C.ar      1 <0>        -0.0459
      8 C5         -2.6594   -0.4291   -0.0003 C.2       1 <0>         0.1240
      9 C6          1.8744    0.8854    0.0001 C.ar      1 <0>        -0.0598
     10 C7          2.1595   -0.4900    0.0001 C.ar      1 <0>        -0.0606
     11 H1         -2.1703    1.6300    0.0001 H         1 <0>         0.1669
     12 H2          0.3354    2.4004   -0.0000 H         1 <0>         0.0638
     13 H3          1.3568   -2.4938    0.0001 H         1 <0>         0.0629
     14 H4          2.6906    1.6026    0.0001 H         1 <0>         0.0618
     15 H5          3.1939   -0.8229    0.0003 H         1 <0>         0.0618
@<TRIPOS>BOND
     1    1    5 1
     2    1    8 1
     3    2    8 2
     4    3    4 1
     5    3    8 1
     6    3   11 1
     7    4    5 ar
     8    4    6 ar
     9    5    7 ar
    10    6    9 ar
    11    6   12 1
    12    7   10 ar
    13    7   13 1
    14    9   10 ar
    15    9   14 1
    16   10   15 1
