@<TRIPOS>MOLECULE
DB11226
   58    59     0     0     0
SMALL
USER_CHARGES

@<TRIPOS>ATOM
      1 O1          1.0237   -1.9827    1.0124 O.3       1 <0>        -0.4604
      2 O2          0.3454   -2.7218   -1.0656 O.2       1 <0>        -0.2442
      3 O3         -6.8933    1.1855    1.4842 O.3       1 <0>        -0.4951
      4 N1         -2.2288   -2.8217    2.5923 N.1       1 <0>        -0.1906
      5 C1          3.1378   -1.2395    0.0770 C.3       1 <0>        -0.0069
      6 C2          2.9782    0.0394    0.9260 C.3       1 <0>        -0.0471
      7 C3          4.6052   -1.6208   -0.2218 C.3       1 <0>        -0.0500
      8 C4          3.5957    1.2846    0.2814 C.3       1 <0>        -0.0529
      9 C5          2.3570   -2.3886    0.7354 C.3       1 <0>         0.0956
     10 C6          3.4466    2.5440    1.1393 C.3       1 <0>        -0.0559
     11 C7          5.4572   -1.9238    1.0032 C.3       1 <0>        -0.0649
     12 C8          4.0803    3.7787    0.5168 C.3       1 <0>        -0.0653
     13 C9          0.1133   -2.2095    0.0191 C.2       1 <0>         0.3502
     14 C10        -1.2307   -1.7264    0.4637 C.2       1 <0>         0.1437
     15 C11        -1.8885   -0.7606   -0.2289 C.2       1 <0>         0.0136
     16 C12        -3.2077   -0.2478    0.2227 C.ar      1 <0>        -0.0156
     17 C13        -1.2554   -0.1763   -1.4422 C.ar      1 <0>        -0.0159
     18 C14        -4.3823   -0.8312   -0.2520 C.ar      1 <0>        -0.0505
     19 C15        -3.2716    0.8169    1.1217 C.ar      1 <0>        -0.0505
     20 C16        -0.4031    0.9216   -1.3240 C.ar      1 <0>        -0.0540
     21 C17        -1.5141   -0.7265   -2.6976 C.ar      1 <0>        -0.0540
     22 C18        -1.7845   -2.3298    1.6396 C.1       1 <0>         0.1070
     23 C19        -5.6210   -0.3499    0.1720 C.ar      1 <0>        -0.0194
     24 C20        -4.5100    1.2982    1.5457 C.ar      1 <0>        -0.0194
     25 C21        -5.6848    0.7149    1.0710 C.ar      1 <0>         0.1201
     26 C22         0.1903    1.4694   -2.4614 C.ar      1 <0>        -0.0612
     27 C23        -0.9207   -0.1788   -3.8349 C.ar      1 <0>        -0.0612
     28 C24        -0.0685    0.9193   -3.7169 C.ar      1 <0>        -0.0617
     29 C25        -8.0540    0.5435    0.9582 C.3       1 <0>         0.0788
     30 H1          2.6584   -1.0326   -0.8899 H         1 <0>         0.0333
     31 H2          1.9150    0.2530    1.0889 H         1 <0>         0.0269
     32 H3          3.4142   -0.1135    1.9206 H         1 <0>         0.0269
     33 H4          5.0871   -0.8305   -0.8076 H         1 <0>         0.0266
     34 H5          4.6067   -2.5087   -0.8670 H         1 <0>         0.0266
     35 H6          3.1327    1.4551   -0.6981 H         1 <0>         0.0265
     36 H7          4.6649    1.1238    0.1065 H         1 <0>         0.0265
     37 H8          2.8023   -2.6528    1.7002 H         1 <0>         0.0700
     38 H9          2.3863   -3.2958    0.1195 H         1 <0>         0.0700
     39 H10         2.3818    2.7410    1.3119 H         1 <0>         0.0263
     40 H11         3.9017    2.3708    2.1218 H         1 <0>         0.0263
     41 H12         6.4744   -2.1834    0.6910 H         1 <0>         0.0230
     42 H13         5.5282   -1.0584    1.6680 H         1 <0>         0.0230
     43 H14         5.0637   -2.7706    1.5719 H         1 <0>         0.0230
     44 H15         5.1545    3.6321    0.3659 H         1 <0>         0.0230
     45 H16         3.6246    4.0037   -0.4526 H         1 <0>         0.0230
     46 H17         3.9425    4.6468    1.1688 H         1 <0>         0.0230
     47 H18        -4.3482   -1.6625   -0.9523 H         1 <0>         0.0625
     48 H19        -2.3650    1.2819    1.5015 H         1 <0>         0.0625
     49 H20        -0.1892    1.3609   -0.3527 H         1 <0>         0.0624
     50 H21        -2.1751   -1.5829   -2.8062 H         1 <0>         0.0624
     51 H22        -6.4932   -0.8490   -0.2360 H         1 <0>         0.0654
     52 H23        -4.5534    2.1279    2.2461 H         1 <0>         0.0654
     53 H24         0.8553    2.3232   -2.3688 H         1 <0>         0.0618
     54 H25        -1.1216   -0.6074   -4.8122 H         1 <0>         0.0618
     55 H26         0.3942    1.3453   -4.6022 H         1 <0>         0.0618
     56 H27        -8.9253    1.0448    1.3924 H         1 <0>         0.0660
     57 H28        -8.1054   -0.5074    1.2625 H         1 <0>         0.0660
     58 H29        -8.1237    0.6651   -0.1281 H         1 <0>         0.0660
@<TRIPOS>BOND
     1    1    9 1
     2    1   13 1
     3    2   13 2
     4    3   25 1
     5    3   29 1
     6    4   22 3
     7    5    6 1
     8    5    7 1
     9    5    9 1
    10    5   30 1
    11    6    8 1
    12    6   31 1
    13    6   32 1
    14    7   11 1
    15    7   33 1
    16    7   34 1
    17    8   10 1
    18    8   35 1
    19    8   36 1
    20    9   37 1
    21    9   38 1
    22   10   12 1
    23   10   39 1
    24   10   40 1
    25   11   41 1
    26   11   42 1
    27   11   43 1
    28   12   44 1
    29   12   45 1
    30   12   46 1
    31   13   14 1
    32   14   15 2
    33   14   22 1
    34   15   16 1
    35   15   17 1
    36   16   18 ar
    37   16   19 ar
    38   17   20 ar
    39   17   21 ar
    40   18   23 ar
    41   18   47 1
    42   19   24 ar
    43   19   48 1
    44   20   26 ar
    45   20   49 1
    46   21   27 ar
    47   21   50 1
    48   23   25 ar
    49   23   51 1
    50   24   25 ar
    51   24   52 1
    52   26   28 ar
    53   26   53 1
    54   27   28 ar
    55   27   54 1
    56   28   55 1
    57   29   56 1
    58   29   57 1
    59   29   58 1
