@<TRIPOS>MOLECULE
DB11362
   67    69     0     0     0
SMALL
USER_CHARGES

@<TRIPOS>ATOM
      1 S1          6.1019   -1.7328   -1.3273 S.o2      1 <0>         0.0424
      2 O1          1.3313   -3.1899    0.1425 O.3       1 <0>        -0.3705
      3 O2          3.2573   -1.3137   -0.1060 O.2       1 <0>        -0.2717
      4 O3          7.2565   -2.4678   -1.8045 O.2       1 <0>        -0.1554
      5 O4          5.6370   -0.5447   -2.0162 O.2       1 <0>        -0.1554
      6 N1         -3.3204   -0.9696    0.0498 N.pl3     1 <0>        -0.3114
      7 N2         -1.6537    0.6024    0.6866 N.ar      1 <0>        -0.2283
      8 N3         -2.1891    2.0361   -1.6637 N.ar      1 <0>        -0.2494
      9 N4          4.7794   -2.7915   -1.1088 N.am      1 <0>        -0.1883
     10 C1         -2.7564   -2.0675    0.7984 C.3       1 <0>         0.0139
     11 C2         -4.6938   -1.0900   -0.4422 C.3       1 <0>         0.0192
     12 C3         -1.4990   -2.6038    0.1191 C.3       1 <0>        -0.0351
     13 C4         -0.8716   -3.7720    0.8809 C.3       1 <0>        -0.0280
     14 C5         -2.5872    0.1993   -0.1980 C.ar      1 <0>         0.1405
     15 C6         -4.7864   -2.2625   -1.4102 C.3       1 <0>        -0.0467
     16 C7         -5.6366   -1.2708    0.7400 C.3       1 <0>        -0.0467
     17 C8          0.4013   -4.2625    0.2043 C.3       1 <0>         0.0483
     18 C9         -2.8500    0.9033   -1.3525 C.ar      1 <0>         0.0682
     19 C10        -0.9928    1.7353    0.3755 C.ar      1 <0>         0.0990
     20 C11        -1.2559    2.4393   -0.7790 C.ar      1 <0>         0.0970
     21 C12        -0.0004    2.1381    1.3451 C.ar      1 <0>         0.0025
     22 C13        -0.5673    3.6561   -1.1435 C.ar      1 <0>         0.0024
     23 C14         2.5519   -3.5919   -0.4648 C.3       1 <0>         0.1251
     24 C15        -0.3564    2.9806    2.3984 C.ar      1 <0>        -0.0525
     25 C16         1.3135    1.6846    1.2284 C.ar      1 <0>        -0.0525
     26 C17         0.6000    3.5956   -1.9048 C.ar      1 <0>        -0.0525
     27 C18        -1.0699    4.8914   -0.7347 C.ar      1 <0>        -0.0525
     28 C19         3.5238   -2.4364   -0.5192 C.2       1 <0>         0.2574
     29 C20         0.6015    3.3695    3.3349 C.ar      1 <0>        -0.0611
     30 C21         2.2714    2.0734    2.1649 C.ar      1 <0>        -0.0611
     31 C22         1.2648    4.7701   -2.2570 C.ar      1 <0>        -0.0611
     32 C23        -0.4052    6.0661   -1.0872 C.ar      1 <0>        -0.0611
     33 C24         1.9153    2.9160    3.2182 C.ar      1 <0>        -0.0617
     34 C25         0.7622    6.0053   -1.8483 C.ar      1 <0>        -0.0617
     35 C26         6.4016   -1.2844    0.3651 C.3       1 <0>         0.0736
     36 H1         -3.4583   -2.8975    0.9276 H         1 <0>         0.0464
     37 H2         -2.5128   -1.7296    1.8140 H         1 <0>         0.0464
     38 H3         -5.0460   -0.1901   -0.9564 H         1 <0>         0.0495
     39 H4         -1.7458   -2.9292   -0.8999 H         1 <0>         0.0281
     40 H5         -0.7567   -1.8051    0.0141 H         1 <0>         0.0281
     41 H6         -1.5870   -4.5983    0.9589 H         1 <0>         0.0288
     42 H7         -0.6328   -3.4404    1.8989 H         1 <0>         0.0288
     43 H8         -4.5973   -3.2286   -0.9320 H         1 <0>         0.0247
     44 H9         -4.0690   -2.1504   -2.2305 H         1 <0>         0.0247
     45 H10        -5.7886   -2.3121   -1.8504 H         1 <0>         0.0247
     46 H11        -6.6784   -1.2539    0.4003 H         1 <0>         0.0247
     47 H12        -5.5115   -0.4610    1.4677 H         1 <0>         0.0247
     48 H13        -5.4888   -2.2181    1.2674 H         1 <0>         0.0247
     49 H14         0.1783   -4.6198   -0.8079 H         1 <0>         0.0560
     50 H15         0.8277   -5.0890    0.7842 H         1 <0>         0.0560
     51 H16        -3.5511    0.5927   -2.1168 H         1 <0>         0.0865
     52 H17         3.0068   -4.4000    0.1188 H         1 <0>         0.0657
     53 H18         2.3620   -3.9328   -1.4887 H         1 <0>         0.0657
     54 H19        -1.3763    3.3425    2.5042 H         1 <0>         0.0624
     55 H20         1.6067    1.0280    0.4128 H         1 <0>         0.0624
     56 H21         1.0049    2.6406   -2.2318 H         1 <0>         0.0624
     57 H22        -1.9790    4.9562   -0.1413 H         1 <0>         0.0624
     58 H23         0.3243    4.0254    4.1549 H         1 <0>         0.0618
     59 H24         3.2943    1.7201    2.0738 H         1 <0>         0.0618
     60 H25         2.1739    4.7228   -2.8494 H         1 <0>         0.0618
     61 H26        -0.7964    7.0280   -0.7689 H         1 <0>         0.0618
     62 H27         2.6612    3.2188    3.9473 H         1 <0>         0.0618
     63 H28         1.2800    6.9197   -2.1225 H         1 <0>         0.0618
     64 H29         4.9434   -3.7826   -1.3288 H         1 <0>         0.1762
     65 H30         6.5698   -2.1912    0.9493 H         1 <0>         0.0482
     66 H31         5.5624   -0.7106    0.7579 H         1 <0>         0.0482
     67 H32         7.3018   -0.6653    0.3890 H         1 <0>         0.0482
@<TRIPOS>BOND
     1    1    4 2
     2    1    5 2
     3    1    9 1
     4    1   35 1
     5    2   17 1
     6    2   23 1
     7    3   28 2
     8    6   10 1
     9    6   11 1
    10    6   14 1
    11    7   14 ar
    12    7   19 ar
    13    8   18 ar
    14    8   20 ar
    15    9   28 am
    16    9   64 1
    17   10   12 1
    18   10   36 1
    19   10   37 1
    20   11   15 1
    21   11   16 1
    22   11   38 1
    23   12   13 1
    24   12   39 1
    25   12   40 1
    26   13   17 1
    27   13   41 1
    28   13   42 1
    29   14   18 ar
    30   15   43 1
    31   15   44 1
    32   15   45 1
    33   16   46 1
    34   16   47 1
    35   16   48 1
    36   17   49 1
    37   17   50 1
    38   18   51 1
    39   19   20 ar
    40   19   21 1
    41   20   22 1
    42   21   24 ar
    43   21   25 ar
    44   22   26 ar
    45   22   27 ar
    46   23   28 1
    47   23   52 1
    48   23   53 1
    49   24   29 ar
    50   24   54 1
    51   25   30 ar
    52   25   55 1
    53   26   31 ar
    54   26   56 1
    55   27   32 ar
    56   27   57 1
    57   29   33 ar
    58   29   58 1
    59   30   33 ar
    60   30   59 1
    61   31   34 ar
    62   31   60 1
    63   32   34 ar
    64   32   61 1
    65   33   62 1
    66   34   63 1
    67   35   65 1
    68   35   66 1
    69   35   67 1
