@<TRIPOS>MOLECULE
DB11155
   28    29     0     0     0
SMALL
USER_CHARGES

@<TRIPOS>ATOM
      1 Cl1         6.0592    2.0468    0.0021 Cl        1 <0>        -0.0820
      2 Cl2         6.7737   -1.1094    0.0010 Cl        1 <0>        -0.0820
      3 Cl3        -6.8368   -0.9237    0.0017 Cl        1 <0>        -0.0835
      4 O1         -0.0180   -1.3238   -0.0001 O.2       1 <0>        -0.2522
      5 N1          1.1459    0.7045   -0.0006 N.am      1 <0>        -0.2692
      6 N2         -1.1640    0.7199   -0.0006 N.am      1 <0>        -0.2692
      7 C1          2.4976    0.2861   -0.0005 C.ar      1 <0>         0.0362
      8 C2         -2.5038    0.3317   -0.0006 C.ar      1 <0>         0.0349
      9 C3          3.5029    1.2390    0.0005 C.ar      1 <0>        -0.0207
     10 C4          2.7871   -1.0684   -0.0010 C.ar      1 <0>        -0.0390
     11 C5         -0.0069   -0.0970   -0.0004 C.2       1 <0>         0.3081
     12 C6         -3.5100    1.2979   -0.0009 C.ar      1 <0>        -0.0391
     13 C7         -2.8376   -1.0228    0.0002 C.ar      1 <0>        -0.0391
     14 C8          4.8352    0.8258    0.0011 C.ar      1 <0>         0.0610
     15 C9          4.1194   -1.4816   -0.0007 C.ar      1 <0>        -0.0402
     16 C10         5.1434   -0.5344    0.0005 C.ar      1 <0>         0.0594
     17 C11        -4.8499    0.9097   -0.0001 C.ar      1 <0>        -0.0416
     18 C12        -4.1775   -1.4108    0.0008 C.ar      1 <0>        -0.0416
     19 C13        -5.1836   -0.4446    0.0009 C.ar      1 <0>         0.0411
     20 H1          1.0006    1.7110   -0.0004 H         1 <0>         0.1564
     21 H2         -1.0001    1.7236   -0.0009 H         1 <0>         0.1564
     22 H3          3.2553    2.2981    0.0010 H         1 <0>         0.0651
     23 H4          2.0560   -1.8627   -0.0021 H         1 <0>         0.0636
     24 H5         -3.2643    2.3569   -0.0015 H         1 <0>         0.0636
     25 H6         -2.1194   -1.8300    0.0004 H         1 <0>         0.0636
     26 H7          4.3430   -2.5457   -0.0013 H         1 <0>         0.0633
     27 H8         -5.6232    1.6736   -0.0001 H         1 <0>         0.0633
     28 H9         -4.4242   -2.4695    0.0015 H         1 <0>         0.0633
@<TRIPOS>BOND
     1    1   14 1
     2    2   16 1
     3    3   19 1
     4    4   11 2
     5    5    7 1
     6    5   11 am
     7    5   20 1
     8    6    8 1
     9    6   11 am
    10    6   21 1
    11    7    9 ar
    12    7   10 ar
    13    8   12 ar
    14    8   13 ar
    15    9   14 ar
    16    9   22 1
    17   10   15 ar
    18   10   23 1
    19   12   17 ar
    20   12   24 1
    21   13   18 ar
    22   13   25 1
    23   14   16 ar
    24   15   16 ar
    25   15   26 1
    26   17   19 ar
    27   17   27 1
    28   18   19 ar
    29   18   28 1
