@<TRIPOS>MOLECULE
DB11642
   46    47     0     0     0
SMALL
USER_CHARGES

@<TRIPOS>ATOM
      1 Cl1        -9.2467   -2.2384   -0.8640 Cl        1 <0>        -0.0835
      2 O1         -0.6990    0.4061   -0.0072 O.3       1 <0>        -0.3797
      3 N1          4.1339    0.2269   -0.3366 N.3       1 <0>        -0.3022
      4 C1          5.3921    0.9635   -0.1507 C.3       1 <0>        -0.0011
      5 C2          4.1766   -1.0769    0.3400 C.3       1 <0>        -0.0011
      6 C3          6.5810    0.1710   -0.6963 C.3       1 <0>        -0.0402
      7 C4          5.3258   -1.9361   -0.1896 C.3       1 <0>        -0.0402
      8 C5          6.6621   -1.2135   -0.0634 C.3       1 <0>        -0.0507
      9 C6          3.0022    1.0175    0.1469 C.3       1 <0>         0.0010
     10 C7          1.6892    0.3032   -0.1570 C.3       1 <0>        -0.0166
     11 C8          0.4899    1.1137    0.3160 C.3       1 <0>         0.0488
     12 C9         -1.8582    1.1145    0.4106 C.3       1 <0>         0.0480
     13 C10        -3.0917    0.3048    0.0358 C.3       1 <0>        -0.0255
     14 C11        -4.3785    1.0199    0.4447 C.3       1 <0>        -0.0256
     15 C12        -5.6000    0.2008    0.1153 C.ar      1 <0>        -0.0472
     16 C13        -6.2097    0.3524   -1.1213 C.ar      1 <0>        -0.0572
     17 C14        -6.0962   -0.6910    1.0548 C.ar      1 <0>        -0.0572
     18 C15        -7.3411   -0.4048   -1.4252 C.ar      1 <0>        -0.0431
     19 C16        -7.2276   -1.4483    0.7508 C.ar      1 <0>        -0.0431
     20 C17        -7.8499   -1.3052   -0.4892 C.ar      1 <0>         0.0410
     21 H1          5.5581    1.1917    0.9104 H         1 <0>         0.0426
     22 H2          5.3461    1.9195   -0.6863 H         1 <0>         0.0426
     23 H3          3.2782   -1.6699    0.1529 H         1 <0>         0.0426
     24 H4          4.2756   -0.9546    1.4266 H         1 <0>         0.0426
     25 H5          6.4867    0.0700   -1.7851 H         1 <0>         0.0278
     26 H6          7.5103    0.7194   -0.5057 H         1 <0>         0.0278
     27 H7          5.3658   -2.8829    0.3611 H         1 <0>         0.0278
     28 H8          5.1441   -2.1860   -1.2428 H         1 <0>         0.0278
     29 H9          7.4541   -1.8002   -0.5415 H         1 <0>         0.0266
     30 H10         6.9272   -1.1164    0.9966 H         1 <0>         0.0266
     31 H11         3.0857    1.2126    1.2240 H         1 <0>         0.0427
     32 H12         2.9919    1.9908   -0.3596 H         1 <0>         0.0427
     33 H13         1.6068   -0.6662    0.3435 H         1 <0>         0.0300
     34 H14         1.5952    0.1041   -1.2322 H         1 <0>         0.0300
     35 H15         0.5431    1.2672    1.4003 H         1 <0>         0.0560
     36 H16         0.4793    2.0917   -0.1793 H         1 <0>         0.0560
     37 H17        -1.8873    2.0929   -0.0832 H         1 <0>         0.0560
     38 H18        -1.8242    1.2663    1.4958 H         1 <0>         0.0560
     39 H19        -3.0317   -0.6835    0.5097 H         1 <0>         0.0290
     40 H20        -3.0860    0.1114   -1.0447 H         1 <0>         0.0290
     41 H21        -4.4433    1.9951   -0.0549 H         1 <0>         0.0314
     42 H22        -4.3641    1.2375    1.5205 H         1 <0>         0.0314
     43 H23        -5.8198    1.0497   -1.8574 H         1 <0>         0.0621
     44 H24        -5.6176   -0.8108    2.0226 H         1 <0>         0.0621
     45 H25        -7.8156   -0.2830   -2.3956 H         1 <0>         0.0632
     46 H26        -7.6129   -2.1461    1.4898 H         1 <0>         0.0632
@<TRIPOS>BOND
     1    1   20 1
     2    2   11 1
     3    2   12 1
     4    3    4 1
     5    3    5 1
     6    3    9 1
     7    4    6 1
     8    4   21 1
     9    4   22 1
    10    5    7 1
    11    5   23 1
    12    5   24 1
    13    6    8 1
    14    6   25 1
    15    6   26 1
    16    7    8 1
    17    7   27 1
    18    7   28 1
    19    8   29 1
    20    8   30 1
    21    9   10 1
    22    9   31 1
    23    9   32 1
    24   10   11 1
    25   10   33 1
    26   10   34 1
    27   11   35 1
    28   11   36 1
    29   12   13 1
    30   12   37 1
    31   12   38 1
    32   13   14 1
    33   13   39 1
    34   13   40 1
    35   14   15 1
    36   14   41 1
    37   14   42 1
    38   15   16 ar
    39   15   17 ar
    40   16   18 ar
    41   16   43 1
    42   17   19 ar
    43   17   44 1
    44   18   20 ar
    45   18   45 1
    46   19   20 ar
    47   19   46 1
