@<TRIPOS>MOLECULE
DB11796
   67    71     0     0     0
SMALL
USER_CHARGES

@<TRIPOS>ATOM
      1 P1         -2.2575   -3.5627   -0.7374 P.3       1 <0>         0.4740
      2 O1          0.9466    2.7163   -3.5131 O.2       1 <0>        -0.2664
      3 O2          6.1516   -1.2309   -1.4383 O.2       1 <0>        -0.2700
      4 O3          0.3512    3.9863   -0.9013 O.2       1 <0>        -0.2817
      5 O4         -1.5875    4.4985    0.8116 O.3       1 <0>        -0.4929
      6 O5         -2.2692   -1.9870   -0.3739 O.3       1 <0>        -0.2650
      7 O6         -3.6332   -3.8043   -1.5542 O.3       1 <0>        -0.3026
      8 O7         -1.1200   -3.7104   -1.8785 O.3       1 <0>        -0.3026
      9 O8         -2.0718   -4.4825    0.4344 O.2       1 <0>        -0.2275
     10 N1          2.2884    1.7690   -1.8325 N.am      1 <0>        -0.2919
     11 N2          4.0171   -0.3415   -1.1000 N.am      1 <0>        -0.2945
     12 N3         -2.3128    0.2490   -0.9582 N.pl3     1 <0>        -0.3189
     13 N4         -4.8157   -0.0160    0.7377 N.pl3     1 <0>        -0.1999
     14 N5         -4.2933    2.1355    1.5198 N.ar      1 <0>        -0.2307
     15 N6         -4.4688   -1.2677    1.0736 N.2       1 <0>        -0.1490
     16 N7         -6.5913   -1.4502    0.5867 N.2       1 <0>        -0.2192
     17 C1          3.3897    1.3931   -2.7206 C.3       1 <0>         0.0309
     18 C2          2.4997    1.4688   -0.4097 C.3       1 <0>         0.0309
     19 C3          3.7808   -0.0679   -2.5186 C.3       1 <0>         0.0308
     20 C4          2.8923    0.0060   -0.2200 C.3       1 <0>         0.0308
     21 C5          1.1854    2.4345   -2.3462 C.2       1 <0>         0.2871
     22 C6         -0.9596    2.0089   -0.9983 C.2       1 <0>         0.0559
     23 C7         -2.0120    2.2780   -0.0794 C.ar      1 <0>         0.0577
     24 C8         -2.8452    1.1581   -0.0743 C.ar      1 <0>         0.0999
     25 C9          5.2120   -0.9413   -0.6994 C.2       1 <0>         0.2467
     26 C10         0.1649    2.8641   -1.3622 C.2       1 <0>         0.2495
     27 C11        -1.1717    0.7542   -1.5224 C.2       1 <0>         0.0192
     28 C12        -3.9808    1.0879    0.7219 C.ar      1 <0>         0.1802
     29 C13        -2.3385    3.3617    0.7482 C.ar      1 <0>         0.1481
     30 C14        -2.8447   -1.0593   -1.2770 C.3       1 <0>         0.1352
     31 C15         5.3866   -1.2500    0.7253 C.ar      1 <0>         0.0369
     32 C16        -3.4869    3.2217    1.5160 C.ar      1 <0>         0.0723
     33 C17         4.9812   -2.4874    1.2255 C.ar      1 <0>        -0.0496
     34 C18         5.9584   -0.3062    1.5786 C.ar      1 <0>        -0.0496
     35 C19        -6.1091   -0.1797    0.4518 C.cat     1 <0>         0.1219
     36 C20         5.1474   -2.7810    2.5789 C.ar      1 <0>        -0.0610
     37 C21         6.1247   -0.6000    2.9321 C.ar      1 <0>        -0.0610
     38 C22        -5.5297   -2.1139    0.9814 C.2       1 <0>         0.1483
     39 C23         5.7190   -1.8374    3.4322 C.ar      1 <0>        -0.0617
     40 C24        -2.0369    5.5217    1.6965 C.3       1 <0>         0.0789
     41 C25        -5.4715   -3.5419    1.2811 C.3       1 <0>        -0.0028
     42 H1          4.2331    2.0502   -2.4766 H         1 <0>         0.0480
     43 H2          3.1212    1.5710   -3.7668 H         1 <0>         0.0480
     44 H3          3.3097    2.1247   -0.0680 H         1 <0>         0.0480
     45 H4          1.6197    1.6944    0.1952 H         1 <0>         0.0480
     46 H5          2.9690   -0.7297   -2.8430 H         1 <0>         0.0480
     47 H6          4.6652   -0.3068   -3.1172 H         1 <0>         0.0480
     48 H7          3.1225   -0.1784    0.8311 H         1 <0>         0.0480
     49 H8          2.0581   -0.6508   -0.4951 H         1 <0>         0.0480
     50 H9         -0.6080    0.1776   -2.2444 H         1 <0>         0.0817
     51 H10        -2.5068   -1.2997   -2.2927 H         1 <0>         0.0805
     52 H11        -3.9318   -1.0674   -1.3133 H         1 <0>         0.0805
     53 H12        -3.8484    3.9857    2.1956 H         1 <0>         0.0868
     54 H13         4.5340   -3.2298    0.5694 H         1 <0>         0.0625
     55 H14         6.2769    0.6612    1.1993 H         1 <0>         0.0625
     56 H15        -6.7423    0.6385    0.1309 H         1 <0>         0.1049
     57 H16         4.8313   -3.7443    2.9685 H         1 <0>         0.0618
     58 H17         6.5695    0.1349    3.5967 H         1 <0>         0.0618
     59 H18         5.8482   -2.0660    4.4860 H         1 <0>         0.0618
     60 H19        -3.0158    5.9105    1.3964 H         1 <0>         0.0660
     61 H20        -2.0294    5.1833    2.7381 H         1 <0>         0.0660
     62 H21        -1.3254    6.3506    1.6226 H         1 <0>         0.0660
     63 H22        -5.6122   -4.1329    0.3718 H         1 <0>         0.0309
     64 H23        -4.5136   -3.8224    1.7287 H         1 <0>         0.0309
     65 H24        -6.2619   -3.8159    1.9872 H         1 <0>         0.0309
     66 H25        -3.9078   -4.7233   -1.7594 H         1 <0>         0.2220
     67 H26        -0.8437   -4.6088   -2.1590 H         1 <0>         0.2220
@<TRIPOS>BOND
     1    1    6 1
     2    1    7 1
     3    1    8 1
     4    1    9 2
     5    2   21 2
     6    3   25 2
     7    4   26 2
     8    5   29 1
     9    5   40 1
    10    6   30 1
    11    7   66 1
    12    8   67 1
    13   10   17 1
    14   10   18 1
    15   10   21 am
    16   11   19 1
    17   11   20 1
    18   11   25 am
    19   12   24 1
    20   12   27 1
    21   12   30 1
    22   13   15 1
    23   13   28 1
    24   13   35 2
    25   14   28 ar
    26   14   32 ar
    27   15   38 1
    28   16   35 1
    29   16   38 2
    30   17   19 1
    31   17   42 1
    32   17   43 1
    33   18   20 1
    34   18   44 1
    35   18   45 1
    36   19   46 1
    37   19   47 1
    38   20   48 1
    39   20   49 1
    40   21   26 1
    41   22   23 1
    42   22   26 1
    43   22   27 2
    44   23   24 ar
    45   23   29 ar
    46   24   28 ar
    47   25   31 1
    48   27   50 1
    49   29   32 ar
    50   30   51 1
    51   30   52 1
    52   31   33 ar
    53   31   34 ar
    54   32   53 1
    55   33   36 ar
    56   33   54 1
    57   34   37 ar
    58   34   55 1
    59   35   56 1
    60   36   39 ar
    61   36   57 1
    62   37   39 ar
    63   37   58 1
    64   38   41 1
    65   39   59 1
    66   40   60 1
    67   40   61 1
    68   40   62 1
    69   41   63 1
    70   41   64 1
    71   41   65 1
