@<TRIPOS>MOLECULE
DB11262
   99   104     0     0     0
SMALL
USER_CHARGES

@<TRIPOS>ATOM
      1 O1          2.4981    1.0641    2.1470 O.3       1 <0>        -0.5043
      2 O2         -2.4906   -1.0800    2.1360 O.3       1 <0>        -0.5043
      3 N1          4.3181   -0.4044    0.6178 N.pl3     1 <0>        -0.1456
      4 N2         -4.3142    0.3960    0.6186 N.pl3     1 <0>        -0.1456
      5 N3          5.1765   -1.1203   -0.1129 N.2       1 <0>        -0.1470
      6 N4          4.6346    0.8470    0.9604 N.2       1 <0>        -0.1470
      7 N5         -5.1743    1.1157   -0.1064 N.2       1 <0>        -0.1470
      8 N6         -4.6300   -0.8569    0.9557 N.2       1 <0>        -0.1470
      9 C1          1.2524   -4.2800    0.6156 C.3       1 <0>        -0.0093
     10 C2         -1.2597    4.2243    0.6419 C.3       1 <0>        -0.0093
     11 C3         -0.0927   -4.3891   -0.1901 C.3       1 <0>        -0.0389
     12 C4          0.0948    4.3847   -0.1798 C.3       1 <0>        -0.0389
     13 C5         -0.3502   -3.5872   -1.5084 C.3       1 <0>        -0.0369
     14 C6          0.3615    3.5896   -1.5002 C.3       1 <0>        -0.0369
     15 C7          1.5920   -2.8338    1.0292 C.ar      1 <0>        -0.0391
     16 C8         -1.5871    2.8235    1.0357 C.ar      1 <0>        -0.0391
     17 C9          1.0559   -5.0828    1.9345 C.3       1 <0>        -0.0558
     18 C10         2.3931   -4.9958   -0.1385 C.3       1 <0>        -0.0558
     19 C11        -1.0488    5.0679    1.9510 C.3       1 <0>        -0.0558
     20 C12        -2.3909    4.9913   -0.1192 C.3       1 <0>        -0.0558
     21 C13        -0.2109   -2.0683   -1.3514 C.3       1 <0>        -0.0600
     22 C14         0.5605   -4.0633   -2.6569 C.3       1 <0>        -0.0600
     23 C15        -1.8072   -3.8825   -1.9435 C.3       1 <0>        -0.0600
     24 C16         1.3996    4.3986   -2.3170 C.3       1 <0>        -0.0600
     25 C17        -0.9046    3.4847   -2.3727 C.3       1 <0>        -0.0600
     26 C18         0.9373    2.1862   -1.2771 C.3       1 <0>        -0.0600
     27 C19         0.6873   -2.0965    1.7929 C.ar      1 <0>        -0.0510
     28 C20        -0.6805    2.0823    1.7935 C.ar      1 <0>        -0.0510
     29 C21         0.9938   -0.7881    2.1669 C.ar      1 <0>         0.0009
     30 C22        -0.9863    0.7721    2.1617 C.ar      1 <0>         0.0009
     31 C23         0.0118   -0.0155    2.9849 C.3       1 <0>         0.0046
     32 C24         2.8037   -2.2628    0.6397 C.ar      1 <0>        -0.0272
     33 C25        -2.7996    2.2544    0.6462 C.ar      1 <0>        -0.0272
     34 C26         3.1103   -0.9544    1.0135 C.ar      1 <0>         0.1279
     35 C27        -3.1054    0.9442    1.0143 C.ar      1 <0>         0.1279
     36 C28         2.2053   -0.2171    1.7771 C.ar      1 <0>         0.1473
     37 C29        -2.1987    0.2030    1.7719 C.ar      1 <0>         0.1473
     38 C30         6.1909   -0.2570   -0.2854 C.ar      1 <0>         0.1132
     39 C31         5.8454    0.9973    0.3990 C.ar      1 <0>         0.1132
     40 C32        -6.1893    0.2533   -0.2809 C.2       1 <0>         0.1132
     41 C33        -5.8421   -1.0044    0.3965 C.2       1 <0>         0.1132
     42 C34         7.4052   -0.4242   -0.9770 C.ar      1 <0>        -0.0324
     43 C35         6.7073    2.1099    0.4059 C.ar      1 <0>        -0.0324
     44 C36        -7.4051    0.4239   -0.9686 C.2       1 <0>        -0.0324
     45 C37        -6.7039   -2.1170    0.3998 C.2       1 <0>        -0.0324
     46 C38         8.2469    0.7032   -0.9538 C.ar      1 <0>        -0.0596
     47 C39         7.9131    1.9151   -0.2924 C.ar      1 <0>        -0.0596
     48 C40        -8.2467   -0.7034   -0.9491 C.2       1 <0>        -0.0596
     49 C41        -7.9113   -1.9188   -0.2946 C.2       1 <0>        -0.0596
     50 H1         -0.2599   -5.4542   -0.4104 H         1 <0>         0.0279
     51 H2         -0.9093   -4.1213    0.4974 H         1 <0>         0.0279
     52 H3          0.9374    4.1737    0.4949 H         1 <0>         0.0279
     53 H4          0.1924    5.4574   -0.4051 H         1 <0>         0.0279
     54 H5          1.9423   -5.0163    2.5775 H         1 <0>         0.0238
     55 H6          0.1993   -4.7316    2.5203 H         1 <0>         0.0238
     56 H7          0.8805   -6.1446    1.7232 H         1 <0>         0.0238
     57 H8          2.0916   -6.0095   -0.4289 H         1 <0>         0.0238
     58 H9          2.7048   -4.4830   -1.0490 H         1 <0>         0.0238
     59 H10         3.2847   -5.1025    0.4922 H         1 <0>         0.0238
     60 H11        -1.9313    5.0134    2.6002 H         1 <0>         0.0238
     61 H12        -0.1893    4.7227    2.5360 H         1 <0>         0.0238
     62 H13        -0.8725    6.1244    1.7162 H         1 <0>         0.0238
     63 H14        -3.2603    5.1416    0.5345 H         1 <0>         0.0238
     64 H15        -2.7654    4.4909   -1.0114 H         1 <0>         0.0238
     65 H16        -2.0534    5.9892   -0.4239 H         1 <0>         0.0238
     66 H17        -0.8039   -1.6949   -0.5117 H         1 <0>         0.0235
     67 H18        -0.5820   -1.5546   -2.2473 H         1 <0>         0.0235
     68 H19         0.8270   -1.7504   -1.2413 H         1 <0>         0.0235
     69 H20         1.5736   -3.6651   -2.5630 H         1 <0>         0.0235
     70 H21         0.6135   -5.1562   -2.7011 H         1 <0>         0.0235
     71 H22         0.1862   -3.7128   -3.6264 H         1 <0>         0.0235
     72 H23        -2.5212   -3.5499   -1.1812 H         1 <0>         0.0235
     73 H24        -1.9631   -4.9555   -2.1038 H         1 <0>         0.0235
     74 H25        -2.0606   -3.3676   -2.8775 H         1 <0>         0.0235
     75 H26         1.6474    3.8954   -3.2587 H         1 <0>         0.0235
     76 H27         1.0235    5.3971   -2.5675 H         1 <0>         0.0235
     77 H28         2.3308    4.5221   -1.7519 H         1 <0>         0.0235
     78 H29        -0.6635    3.0159   -3.3355 H         1 <0>         0.0235
     79 H30        -1.3161    4.4712   -2.6074 H         1 <0>         0.0235
     80 H31        -1.6704    2.8534   -1.9175 H         1 <0>         0.0235
     81 H32         1.8170    2.2181   -0.6253 H         1 <0>         0.0235
     82 H33         1.2456    1.7267   -2.2236 H         1 <0>         0.0235
     83 H34         0.2038    1.5136   -0.8249 H         1 <0>         0.0235
     84 H35        -0.2559   -2.5352    2.1028 H         1 <0>         0.0624
     85 H36         0.2647    2.5183    2.1017 H         1 <0>         0.0624
     86 H37         0.5034    0.6665    3.6884 H         1 <0>         0.0364
     87 H38        -0.4881   -0.6924    3.6875 H         1 <0>         0.0364
     88 H39         3.5116   -2.8304    0.0483 H         1 <0>         0.0643
     89 H40        -3.5124    2.8255    0.0641 H         1 <0>         0.0643
     90 H41         2.1466    1.2528    3.0297 H         1 <0>         0.2922
     91 H42        -2.1188   -1.2820    3.0073 H         1 <0>         0.2922
     92 H43         7.6787   -1.3389   -1.4872 H         1 <0>         0.0640
     93 H44         6.4720    3.0421    0.9035 H         1 <0>         0.0640
     94 H45        -7.6799    1.3412   -1.4735 H         1 <0>         0.0640
     95 H46        -6.4673   -3.0517    0.8921 H         1 <0>         0.0640
     96 H47         9.2046    0.6453   -1.4694 H         1 <0>         0.0618
     97 H48         8.6290    2.7351   -0.3289 H         1 <0>         0.0618
     98 H49        -9.2057   -0.6431   -1.4621 H         1 <0>         0.0618
     99 H50        -8.6273   -2.7387   -0.3336 H         1 <0>         0.0618
@<TRIPOS>BOND
     1    1   36 1
     2    1   90 1
     3    2   37 1
     4    2   91 1
     5    3    5 1
     6    3    6 2
     7    3   34 1
     8    4    7 1
     9    4    8 2
    10    4   35 1
    11    5   38 1
    12    6   39 1
    13    7   40 2
    14    8   41 1
    15    9   11 1
    16    9   15 1
    17    9   17 1
    18    9   18 1
    19   10   12 1
    20   10   16 1
    21   10   19 1
    22   10   20 1
    23   11   13 1
    24   11   50 1
    25   11   51 1
    26   12   14 1
    27   12   52 1
    28   12   53 1
    29   13   21 1
    30   13   22 1
    31   13   23 1
    32   14   24 1
    33   14   25 1
    34   14   26 1
    35   15   27 ar
    36   15   32 ar
    37   16   28 ar
    38   16   33 ar
    39   17   54 1
    40   17   55 1
    41   17   56 1
    42   18   57 1
    43   18   58 1
    44   18   59 1
    45   19   60 1
    46   19   61 1
    47   19   62 1
    48   20   63 1
    49   20   64 1
    50   20   65 1
    51   21   66 1
    52   21   67 1
    53   21   68 1
    54   22   69 1
    55   22   70 1
    56   22   71 1
    57   23   72 1
    58   23   73 1
    59   23   74 1
    60   24   75 1
    61   24   76 1
    62   24   77 1
    63   25   78 1
    64   25   79 1
    65   25   80 1
    66   26   81 1
    67   26   82 1
    68   26   83 1
    69   27   29 ar
    70   27   84 1
    71   28   30 ar
    72   28   85 1
    73   29   31 1
    74   29   36 ar
    75   30   31 1
    76   30   37 ar
    77   31   86 1
    78   31   87 1
    79   32   34 ar
    80   32   88 1
    81   33   35 ar
    82   33   89 1
    83   34   36 ar
    84   35   37 ar
    85   38   39 ar
    86   38   42 ar
    87   39   43 ar
    88   40   41 1
    89   40   44 2
    90   41   45 2
    91   42   46 ar
    92   42   92 1
    93   43   47 ar
    94   43   93 1
    95   44   48 1
    96   44   94 1
    97   45   49 1
    98   45   95 1
    99   46   47 ar
   100   46   96 1
   101   47   97 1
   102   48   49 2
   103   48   98 1
   104   49   99 1
