@<TRIPOS>MOLECULE
DB11705
   53    53     0     0     0
SMALL
USER_CHARGES

@<TRIPOS>ATOM
      1 I1          3.3772   -1.8690    0.8023 I         1 <0>        -0.0411
      2 I2         -2.4722   -3.5946    0.5568 I         1 <0>        -0.0411
      3 I3         -1.0578    2.2837    1.4103 I         1 <0>        -0.0422
      4 O1         -4.3185    2.5241   -1.1487 O.3       1 <0>        -0.3880
      5 O2          4.8940    1.3578   -1.3254 O.3       1 <0>        -0.3880
      6 O3         -3.4368   -0.4135    2.0997 O.2       1 <0>        -0.2701
      7 O4          2.3424    1.2904    2.3412 O.2       1 <0>        -0.2701
      8 O5         -6.6187    3.6339   -0.0453 O.3       1 <0>        -0.3924
      9 O6          7.1332    2.5749   -0.2094 O.3       1 <0>        -0.3924
     10 O7          1.3048   -5.3810   -1.0305 O.2       1 <0>        -0.2727
     11 O8          1.0824   -3.9640   -3.1663 O.3       1 <0>        -0.3858
     12 N1          0.7475   -3.7113    0.5350 N.am      1 <0>        -0.2707
     13 N2         -3.4425   -0.0573   -0.1923 N.am      1 <0>        -0.3088
     14 N3          2.3590    1.6100    0.0447 N.am      1 <0>        -0.3088
     15 C1          0.3470   -2.3813    0.7285 C.ar      1 <0>         0.0638
     16 C2         -1.4081   -0.7386    0.9694 C.ar      1 <0>         0.0654
     17 C3          0.9073   -0.0554    1.0654 C.ar      1 <0>         0.0654
     18 C4          1.3055   -1.3782    0.8726 C.ar      1 <0>         0.0489
     19 C5         -1.0099   -2.0613    0.7770 C.ar      1 <0>         0.0489
     20 C6         -0.4496    0.2645    1.1137 C.ar      1 <0>         0.0397
     21 C7         -4.8263    0.3201   -0.3033 C.3       1 <0>         0.0401
     22 C8          3.3649    2.6476    0.0270 C.3       1 <0>         0.0401
     23 C9         -5.0473    1.8228   -0.1406 C.3       1 <0>         0.0936
     24 C10         4.7835    2.0976   -0.1087 C.3       1 <0>         0.0936
     25 C11        -2.8533   -0.3980    1.0190 C.2       1 <0>         0.2462
     26 C12         1.9134    0.9971    1.2164 C.2       1 <0>         0.2462
     27 C13        -6.5151    2.2261   -0.2357 C.3       1 <0>         0.0716
     28 C14         5.8512    3.1869   -0.1062 C.3       1 <0>         0.0716
     29 C15         0.9652   -4.6129    1.7034 C.3       1 <0>         0.0084
     30 C16         0.9531   -4.2228   -0.7878 C.2       1 <0>         0.2451
     31 C17         0.7762   -3.2841   -1.9675 C.3       1 <0>         0.1207
     32 H1         -5.4098   -0.2328    0.4410 H         1 <0>         0.0488
     33 H2         -5.1493   -0.0012   -1.2998 H         1 <0>         0.0488
     34 H3          3.1249    3.2866   -0.8300 H         1 <0>         0.0488
     35 H4          3.2741    3.2468    0.9395 H         1 <0>         0.0488
     36 H5         -4.6480    2.1636    0.8221 H         1 <0>         0.0632
     37 H6          4.9959    1.3909    0.7022 H         1 <0>         0.0632
     38 H7         -2.8772   -0.0615   -1.0367 H         1 <0>         0.1491
     39 H8          1.9702    1.3098   -0.8450 H         1 <0>         0.1491
     40 H9         -7.1131    1.7224    0.5299 H         1 <0>         0.0583
     41 H10        -6.9196    1.9943   -1.2264 H         1 <0>         0.0583
     42 H11         5.8143    3.7731    0.8170 H         1 <0>         0.0583
     43 H12         5.7307    3.8526   -0.9670 H         1 <0>         0.0583
     44 H13         1.9976   -4.9730    1.6753 H         1 <0>         0.0433
     45 H14         0.7716   -4.0821    2.6394 H         1 <0>         0.0433
     46 H15         0.2966   -5.4728    1.6066 H         1 <0>         0.0433
     47 H16        -0.2603   -2.9428   -2.0194 H         1 <0>         0.0654
     48 H17         1.4481   -2.4283   -1.8796 H         1 <0>         0.0654
     49 H18        -3.3845    2.2662   -1.0648 H         1 <0>         0.2099
     50 H19         4.2164    0.6606   -1.3042 H         1 <0>         0.2099
     51 H20        -7.5619    3.8610   -0.1118 H         1 <0>         0.2095
     52 H21         7.7910    3.2909   -0.2061 H         1 <0>         0.2095
     53 H22         0.9406   -3.3382   -3.8969 H         1 <0>         0.2100
@<TRIPOS>BOND
     1    1   18 1
     2    2   19 1
     3    3   20 1
     4    4   23 1
     5    4   49 1
     6    5   24 1
     7    5   50 1
     8    6   25 2
     9    7   26 2
    10    8   27 1
    11    8   51 1
    12    9   28 1
    13    9   52 1
    14   10   30 2
    15   11   31 1
    16   11   53 1
    17   12   15 1
    18   12   29 1
    19   12   30 am
    20   13   21 1
    21   13   25 am
    22   13   38 1
    23   14   22 1
    24   14   26 am
    25   14   39 1
    26   15   18 ar
    27   15   19 ar
    28   16   19 ar
    29   16   20 ar
    30   16   25 1
    31   17   18 ar
    32   17   20 ar
    33   17   26 1
    34   21   23 1
    35   21   32 1
    36   21   33 1
    37   22   24 1
    38   22   34 1
    39   22   35 1
    40   23   27 1
    41   23   36 1
    42   24   28 1
    43   24   37 1
    44   27   40 1
    45   27   41 1
    46   28   42 1
    47   28   43 1
    48   29   44 1
    49   29   45 1
    50   29   46 1
    51   30   31 1
    52   31   47 1
    53   31   48 1
