@<TRIPOS>MOLECULE
DB11640
   15    15     0     0     0
SMALL
USER_CHARGES

@<TRIPOS>ATOM
      1 N1          0.7740    1.8544    0.0018 N.pl3     1 <0>        -0.3565
      2 N2          1.9744   -0.7439    0.0017 N.pl3     1 <0>        -0.3554
      3 N3         -1.6058   -1.6149   -0.0002 N.ar      1 <0>        -0.2613
      4 C1         -0.0125    0.6817   -0.0000 C.ar      1 <0>         0.0484
      5 C2          0.5777   -0.5772   -0.0001 C.ar      1 <0>         0.0638
      6 C3         -1.3985    0.7938   -0.0001 C.ar      1 <0>        -0.0211
      7 C4         -0.2557   -1.6842   -0.0002 C.ar      1 <0>         0.0500
      8 C5         -2.1435   -0.3745   -0.0003 C.ar      1 <0>         0.0294
      9 H1         -1.8932    1.7593    0.0003 H         1 <0>         0.0652
     10 H2          0.1441   -2.6939    0.0003 H         1 <0>         0.0849
     11 H3         -3.2280   -0.3416   -0.0002 H         1 <0>         0.0830
     12 H4          1.7824    1.8036   -0.0012 H         1 <0>         0.1424
     13 H5          0.3225    2.7598   -0.0004 H         1 <0>         0.1424
     14 H6          2.3681   -1.6758   -0.0005 H         1 <0>         0.1424
     15 H7          2.5939    0.0534   -0.0010 H         1 <0>         0.1424
@<TRIPOS>BOND
     1    1    4 1
     2    1   12 1
     3    1   13 1
     4    2    5 1
     5    2   14 1
     6    2   15 1
     7    3    7 ar
     8    3    8 ar
     9    4    5 ar
    10    4    6 ar
    11    5    7 ar
    12    6    8 ar
    13    6    9 1
    14    7   10 1
    15    8   11 1
