@<TRIPOS>MOLECULE
DB11217
   35    36     0     0     0
SMALL
USER_CHARGES

@<TRIPOS>ATOM
      1 O1          0.4651   -0.4876    0.3583 O.3       1 <0>        -0.3313
      2 O2          4.0686    1.4382    0.7758 O.3       1 <0>        -0.3864
      3 O3          3.9684   -1.1720   -0.4621 O.3       1 <0>        -0.3865
      4 O4         -0.7176    1.4918    0.7143 O.3       1 <0>        -0.4608
      5 O5          1.6297    2.9695    0.1531 O.3       1 <0>        -0.3829
      6 O6          0.1937   -3.0841   -0.5023 O.3       1 <0>        -0.3924
      7 O7         -5.6571   -0.5513   -0.6303 O.3       1 <0>        -0.5068
      8 C1          2.9371    0.9436    0.0577 C.3       1 <0>         0.1152
      9 C2          2.8849   -0.5729    0.2440 C.3       1 <0>         0.1120
     10 C3          1.6672    1.6101    0.5868 C.3       1 <0>         0.1454
     11 C4          1.5637   -1.1395   -0.2813 C.3       1 <0>         0.1140
     12 C5          0.4128    0.9073    0.0681 C.3       1 <0>         0.2308
     13 C6          1.4387   -2.6336   -0.0006 C.3       1 <0>         0.0731
     14 C7         -1.9436    0.9850    0.3806 C.ar      1 <0>         0.1242
     15 C8         -2.3782    1.0410   -0.9401 C.ar      1 <0>        -0.0164
     16 C9         -2.7472    0.4167    1.3645 C.ar      1 <0>        -0.0164
     17 C10        -3.6282    0.5239   -1.2805 C.ar      1 <0>        -0.0167
     18 C11        -3.9973   -0.1004    1.0242 C.ar      1 <0>        -0.0167
     19 C12        -4.4377   -0.0467   -0.2983 C.ar      1 <0>         0.1171
     20 H1          3.1002    1.2050   -0.9951 H         1 <0>         0.0648
     21 H2          3.0126   -0.8142    1.3065 H         1 <0>         0.0647
     22 H3          1.6757    1.6271    1.6831 H         1 <0>         0.0683
     23 H4          1.4739   -0.9898   -1.3660 H         1 <0>         0.0647
     24 H5          0.3290    1.0592   -1.0161 H         1 <0>         0.1084
     25 H6          1.4609   -2.8427    1.0741 H         1 <0>         0.0584
     26 H7          2.2337   -3.2054   -0.4878 H         1 <0>         0.0584
     27 H8          4.8556    0.9864    0.4261 H         1 <0>         0.2100
     28 H9          3.8596   -0.9696   -1.4069 H         1 <0>         0.2100
     29 H10         1.6234    2.9760   -0.8194 H         1 <0>         0.2102
     30 H11        -0.5043   -2.5641   -0.0683 H         1 <0>         0.2095
     31 H12        -1.7699    1.4977   -1.7153 H         1 <0>         0.0655
     32 H13        -2.4077    0.3721    2.3954 H         1 <0>         0.0655
     33 H14        -3.9675    0.5720   -2.3116 H         1 <0>         0.0655
     34 H15        -4.6181   -0.5428    1.7986 H         1 <0>         0.0655
     35 H16        -6.0801   -0.9059    0.1706 H         1 <0>         0.2921
@<TRIPOS>BOND
     1    1   11 1
     2    1   12 1
     3    2    8 1
     4    2   27 1
     5    3    9 1
     6    3   28 1
     7    4   12 1
     8    4   14 1
     9    5   10 1
    10    5   29 1
    11    6   13 1
    12    6   30 1
    13    7   19 1
    14    7   35 1
    15    8    9 1
    16    8   10 1
    17    8   20 1
    18    9   11 1
    19    9   21 1
    20   10   12 1
    21   10   22 1
    22   11   13 1
    23   11   23 1
    24   12   24 1
    25   13   25 1
    26   13   26 1
    27   14   15 ar
    28   14   16 ar
    29   15   17 ar
    30   15   31 1
    31   16   18 ar
    32   16   32 1
    33   17   19 ar
    34   17   33 1
    35   18   19 ar
    36   18   34 1
