@<TRIPOS>MOLECULE
DB11273
   82    88     0     0     0
SMALL
USER_CHARGES

@<TRIPOS>ATOM
      1 O1          2.5434    1.4992   -0.0703 O.3       1 <0>        -0.2983
      2 O2          3.0654   -0.1489   -1.6638 O.3       1 <0>        -0.3481
      3 O3          2.1699   -0.9486    2.4294 O.2       1 <0>        -0.2704
      4 O4          6.7763   -1.9514   -0.1577 O.2       1 <0>        -0.2735
      5 O5         -0.4096   -0.5831    2.2328 O.2       1 <0>        -0.2754
      6 N1          3.5321   -0.4429    0.5891 N.am      1 <0>        -0.2332
      7 N2          5.8974    0.0978   -0.7212 N.am      1 <0>        -0.2900
      8 N3          0.4882    0.4328    0.3405 N.am      1 <0>        -0.2796
      9 N4         -3.4381   -2.3457   -0.1087 N.3       1 <0>        -0.3008
     10 N5         -8.5309    0.7818   -0.8508 N.pl3     1 <0>        -0.3604
     11 C1          4.8799    1.1300   -0.5861 C.3       1 <0>         0.0987
     12 C2          3.4964    0.5139   -0.4831 C.3       1 <0>         0.2691
     13 C3          1.7011    0.9210    0.9361 C.3       1 <0>         0.2201
     14 C4          4.5711   -1.4637    0.6833 C.3       1 <0>         0.1096
     15 C5          5.1669    2.0802   -1.7481 C.3       1 <0>        -0.0261
     16 C6          6.9869    0.5379   -1.5787 C.3       1 <0>         0.0154
     17 C7          2.4742   -0.2671    1.4628 C.2       1 <0>         0.2712
     18 C8          6.6907    2.0087   -1.8479 C.3       1 <0>        -0.0352
     19 C9         -3.9329    0.0797   -0.5652 C.3       1 <0>         0.0014
     20 C10         5.8534   -1.1350   -0.1011 C.2       1 <0>         0.2370
     21 C11        -4.4943   -1.3068   -0.0199 C.3       1 <0>         0.0210
     22 C12        -1.6452   -0.6475    0.1897 C.3       1 <0>         0.0489
     23 C13        -2.6723    0.4808    0.2113 C.3       1 <0>        -0.0324
     24 C14         1.4219    1.9504    2.0152 C.3       1 <0>         0.0085
     25 C15         4.0305   -2.8208    0.2339 C.3       1 <0>        -0.0193
     26 C16        -2.2539   -1.9613    0.6789 C.3       1 <0>         0.0100
     27 C17        -5.8238   -1.7398   -0.7498 C.3       1 <0>        -0.0095
     28 C18        -5.0109    1.1505   -0.5532 C.2       1 <0>        -0.0334
     29 C19        -0.4671   -0.2807    1.0437 C.2       1 <0>         0.2198
     30 C20        -6.3353    0.7137   -0.6818 C.2       1 <0>         0.0064
     31 C21        -6.7990   -0.6131   -0.7787 C.2       1 <0>        -0.0206
     32 C22         2.7255    2.4591    2.6345 C.3       1 <0>        -0.0580
     33 C23         0.6092    3.1204    1.4565 C.3       1 <0>        -0.0580
     34 C24         2.7762   -3.1858    1.0238 C.3       1 <0>        -0.0605
     35 C25         3.7391   -2.8118   -1.2647 C.3       1 <0>        -0.0605
     36 C26        -3.8971   -3.6647    0.3368 C.3       1 <0>        -0.0124
     37 C27        -7.4128    1.5780   -0.7278 C.2       1 <0>         0.0470
     38 C28        -4.8236    2.5381   -0.5039 C.2       1 <0>        -0.0576
     39 C29        -8.1686   -0.5493   -0.8855 C.2       1 <0>         0.0060
     40 C30        -7.2389    2.9592   -0.6563 C.2       1 <0>        -0.0378
     41 C31        -5.9167    3.4188   -0.5470 C.2       1 <0>        -0.0595
     42 H1          5.1111    1.6596    0.3502 H         1 <0>         0.0572
     43 H2          4.8517   -1.5250    1.7428 H         1 <0>         0.0601
     44 H3          4.8050    3.0947   -1.5579 H         1 <0>         0.0286
     45 H4          4.7340    1.7323   -2.6912 H         1 <0>         0.0286
     46 H5          6.9490   -0.0572   -2.4976 H         1 <0>         0.0465
     47 H6          7.9523    0.3750   -1.0910 H         1 <0>         0.0465
     48 H7          7.0724    2.3446   -2.8159 H         1 <0>         0.0281
     49 H8          7.1421    2.6315   -1.0662 H         1 <0>         0.0281
     50 H9         -3.6537   -0.0625   -1.6199 H         1 <0>         0.0364
     51 H10        -4.7552   -1.1599    1.0409 H         1 <0>         0.0471
     52 H11        -1.3015   -0.7965   -0.8437 H         1 <0>         0.0407
     53 H12        -2.2223    1.3812   -0.2246 H         1 <0>         0.0279
     54 H13        -2.9318    0.7388    1.2474 H         1 <0>         0.0279
     55 H14         0.8389    1.5067    2.8316 H         1 <0>         0.0345
     56 H15         4.7953   -3.5847    0.4267 H         1 <0>         0.0318
     57 H16        -1.4861   -2.7424    0.5952 H         1 <0>         0.0434
     58 H17        -2.5182   -1.8949    1.7437 H         1 <0>         0.0434
     59 H18         0.3182    0.6736   -0.6311 H         1 <0>         0.1519
     60 H19        -6.2862   -2.5878   -0.2327 H         1 <0>         0.0329
     61 H20        -5.6010   -2.0473   -1.7791 H         1 <0>         0.0329
     62 H21         3.2505    0.4194   -2.4270 H         1 <0>         0.2145
     63 H22         3.3608    2.9610    1.8971 H         1 <0>         0.0234
     64 H23         2.5103    3.1862    3.4258 H         1 <0>         0.0234
     65 H24         3.3042    1.6511    3.0925 H         1 <0>         0.0234
     66 H25         1.1302    3.6206    0.6331 H         1 <0>         0.0234
     67 H26         0.4327    3.8692    2.2369 H         1 <0>         0.0234
     68 H27        -0.3725    2.7990    1.0948 H         1 <0>         0.0234
     69 H28         1.8859   -2.6285    0.7221 H         1 <0>         0.0233
     70 H29         2.5313   -4.2359    0.8158 H         1 <0>         0.0233
     71 H30         2.9457   -3.1350    2.1028 H         1 <0>         0.0233
     72 H31         2.7519   -2.4029   -1.4938 H         1 <0>         0.0233
     73 H32         3.6990   -3.8512   -1.6157 H         1 <0>         0.0233
     74 H33         4.5025   -2.3205   -1.8725 H         1 <0>         0.0233
     75 H34        -4.6473   -4.0760   -0.3455 H         1 <0>         0.0391
     76 H35        -4.3147   -3.6356    1.3495 H         1 <0>         0.0391
     77 H36        -3.0716   -4.3864    0.3289 H         1 <0>         0.0391
     78 H37        -3.8250    2.9604   -0.4355 H         1 <0>         0.0621
     79 H38        -8.9226   -1.3179   -0.9807 H         1 <0>         0.0810
     80 H39        -9.4806    1.1220   -0.9107 H         1 <0>         0.1653
     81 H40        -8.0757    3.6470   -0.6922 H         1 <0>         0.0638
     82 H41        -5.7337    4.4903   -0.5001 H         1 <0>         0.0618
@<TRIPOS>BOND
     1    1   12 1
     2    1   13 1
     3    2   12 1
     4    2   62 1
     5    3   17 2
     6    4   20 2
     7    5   29 2
     8    6   12 1
     9    6   14 1
    10    6   17 am
    11    7   11 1
    12    7   16 1
    13    7   20 am
    14    8   13 1
    15    8   29 am
    16    8   59 1
    17    9   21 1
    18    9   26 1
    19    9   36 1
    20   10   37 1
    21   10   39 2
    22   10   80 1
    23   11   12 1
    24   11   15 1
    25   11   42 1
    26   13   17 1
    27   13   24 1
    28   14   20 1
    29   14   25 1
    30   14   43 1
    31   15   18 1
    32   15   44 1
    33   15   45 1
    34   16   18 1
    35   16   46 1
    36   16   47 1
    37   18   48 1
    38   18   49 1
    39   19   21 1
    40   19   23 1
    41   19   28 1
    42   19   50 1
    43   21   27 1
    44   21   51 1
    45   22   23 1
    46   22   26 1
    47   22   29 1
    48   22   52 1
    49   23   53 1
    50   23   54 1
    51   24   32 1
    52   24   33 1
    53   24   55 1
    54   25   34 1
    55   25   35 1
    56   25   56 1
    57   26   57 1
    58   26   58 1
    59   27   31 1
    60   27   60 1
    61   27   61 1
    62   28   30 1
    63   28   38 2
    64   30   31 2
    65   30   37 2
    66   31   39 1
    67   32   63 1
    68   32   64 1
    69   32   65 1
    70   33   66 1
    71   33   67 1
    72   33   68 1
    73   34   69 1
    74   34   70 1
    75   34   71 1
    76   35   72 1
    77   35   73 1
    78   35   74 1
    79   36   75 1
    80   36   76 1
    81   36   77 1
    82   37   40 1
    83   38   41 1
    84   38   78 1
    85   39   79 1
    86   40   41 2
    87   40   81 1
    88   41   82 1
