@<TRIPOS>MOLECULE
DB11610
   28    28     0     0     0
SMALL
USER_CHARGES

@<TRIPOS>ATOM
      1 O1         -0.9867    0.6241    1.7064 O.3       1 <0>        -0.3856
      2 O2          4.8866   -0.0652   -0.1800 O.3       1 <0>        -0.5068
      3 N1         -2.9458    0.1316   -0.3689 N.3       1 <0>        -0.3138
      4 C1         -1.5092    0.2558   -0.6468 C.3       1 <0>         0.0347
      5 C2         -0.7014   -0.2147    0.5836 C.3       1 <0>         0.0952
      6 C3          0.7979   -0.1744    0.3783 C.ar      1 <0>        -0.0175
      7 C4         -1.2241    1.7130   -1.0154 C.3       1 <0>        -0.0470
      8 C5          1.4493   -1.3119   -0.0645 C.ar      1 <0>        -0.0526
      9 C6          1.4832    0.9991    0.6392 C.ar      1 <0>        -0.0526
     10 C7         -3.2808   -1.2384   -0.0217 C.3       1 <0>        -0.0155
     11 C8          2.8310   -1.2749   -0.2528 C.ar      1 <0>        -0.0198
     12 C9          2.8648    1.0362    0.4508 C.ar      1 <0>        -0.0198
     13 C10         3.5387   -0.1008    0.0049 C.ar      1 <0>         0.1169
     14 H1         -1.2559   -0.3636   -1.5171 H         1 <0>         0.0486
     15 H2         -0.9447   -1.2392    0.8839 H         1 <0>         0.0659
     16 H3         -1.8860    2.0393   -1.8269 H         1 <0>         0.0246
     17 H4         -1.3798    2.3951   -0.1727 H         1 <0>         0.0246
     18 H5         -0.2021    1.8414   -1.3841 H         1 <0>         0.0246
     19 H6         -3.2264    0.7605    0.3817 H         1 <0>         0.1220
     20 H7          0.9064   -2.2296   -0.2708 H         1 <0>         0.0622
     21 H8          0.9847    1.9007    0.9818 H         1 <0>         0.0622
     22 H9         -1.9171    0.4838    1.9496 H         1 <0>         0.2103
     23 H10        -3.0304   -1.4889    1.0134 H         1 <0>         0.0388
     24 H11        -2.8268   -1.9673   -0.7017 H         1 <0>         0.0388
     25 H12        -4.3659   -1.3611   -0.1098 H         1 <0>         0.0388
     26 H13         3.3441   -2.1672   -0.6014 H         1 <0>         0.0654
     27 H14         3.4108    1.9541    0.6516 H         1 <0>         0.0654
     28 H15         5.1853   -0.9372   -0.4905 H         1 <0>         0.2921
@<TRIPOS>BOND
     1    1    5 1
     2    1   22 1
     3    2   13 1
     4    2   28 1
     5    3    4 1
     6    3   10 1
     7    3   19 1
     8    4    5 1
     9    4    7 1
    10    4   14 1
    11    5    6 1
    12    5   15 1
    13    6    8 ar
    14    6    9 ar
    15    7   16 1
    16    7   17 1
    17    7   18 1
    18    8   11 ar
    19    8   20 1
    20    9   12 ar
    21    9   21 1
    22   10   23 1
    23   10   24 1
    24   10   25 1
    25   11   13 ar
    26   11   26 1
    27   12   13 ar
    28   12   27 1
