@<TRIPOS>MOLECULE
DB11071
   26    27     0     0     0
SMALL
USER_CHARGES

@<TRIPOS>ATOM
      1 O1         -0.5393   -0.4817    0.4594 O.3       1 <0>        -0.4223
      2 O2          2.2647    2.2411   -0.8251 O.3       1 <0>        -0.5059
      3 O3         -0.1778    1.0744   -1.2388 O.2       1 <0>        -0.2444
      4 C1          1.6686    0.0125   -0.1668 C.ar      1 <0>         0.1007
      5 C2          2.6267    1.0021   -0.3875 C.ar      1 <0>         0.1308
      6 C3          2.0599   -1.2497    0.2797 C.ar      1 <0>        -0.0442
      7 C4         -1.9119   -0.2789    0.2931 C.ar      1 <0>         0.1320
      8 C5          0.2551    0.2758   -0.3975 C.2       1 <0>         0.3480
      9 C6          3.9759    0.7293   -0.1616 C.ar      1 <0>        -0.0194
     10 C7          3.4093   -1.5224    0.5054 C.ar      1 <0>        -0.0608
     11 C8          4.3671   -0.5330    0.2847 C.ar      1 <0>        -0.0583
     12 C9         -2.5937   -1.0726   -0.6021 C.ar      1 <0>        -0.0192
     13 C10        -2.5284    0.7069    1.0308 C.ar      1 <0>        -0.0192
     14 C11        -3.9635   -0.8695   -0.7687 C.ar      1 <0>        -0.0583
     15 C12        -3.8983    0.9098    0.8644 C.ar      1 <0>        -0.0583
     16 C13        -4.6158    0.1215   -0.0355 C.ar      1 <0>        -0.0615
     17 H1          1.3406   -2.0472    0.4470 H         1 <0>         0.0627
     18 H2          4.7332    1.4903   -0.3298 H         1 <0>         0.0654
     19 H3          3.7146   -2.5063    0.8496 H         1 <0>         0.0618
     20 H4          5.4177   -0.7458    0.4596 H         1 <0>         0.0619
     21 H5         -2.0858   -1.8443   -1.1723 H         1 <0>         0.0654
     22 H6         -1.9697    1.3199    1.7311 H         1 <0>         0.0654
     23 H7         -4.5223   -1.4832   -1.4692 H         1 <0>         0.0619
     24 H8         -4.4064    1.6815    1.4353 H         1 <0>         0.0619
     25 H9         -5.6825    0.2795   -0.1650 H         1 <0>         0.0618
     26 H10         3.0620    2.7898   -0.9204 H         1 <0>         0.2922
@<TRIPOS>BOND
     1    1    7 1
     2    1    8 1
     3    2    5 1
     4    2   26 1
     5    3    8 2
     6    4    5 ar
     7    4    6 ar
     8    4    8 1
     9    5    9 ar
    10    6   10 ar
    11    6   17 1
    12    7   12 ar
    13    7   13 ar
    14    9   11 ar
    15    9   18 1
    16   10   11 ar
    17   10   19 1
    18   11   20 1
    19   12   14 ar
    20   12   21 1
    21   13   15 ar
    22   13   22 1
    23   14   16 ar
    24   14   23 1
    25   15   16 ar
    26   15   24 1
    27   16   25 1
