@<TRIPOS>MOLECULE
DB11815
   29    28     0     0     0
SMALL
USER_CHARGES

@<TRIPOS>ATOM
      1 O1         -4.6975    1.3358    1.0909 O.co2     1 <0>        -0.5442
      2 O2         -3.2077    0.2153    2.4057 O.co2     1 <0>        -0.5442
      3 N1         -3.6390    0.2031   -1.2090 N.4       1 <0>         0.2249
      4 N2          1.5082    0.5849    0.0218 N.pl3     1 <0>        -0.2760
      5 N3          3.5590    1.5763   -0.0579 N.pl3     1 <0>        -0.2891
      6 N4          3.3981   -0.8143    0.0092 N.2       1 <0>        -0.1170
      7 C1         -1.9779   -0.9636    0.1546 C.3       1 <0>        -0.0015
      8 C2         -3.4145   -0.4227    0.1322 C.3       1 <0>         0.0161
      9 C3         -0.8917    0.1220    0.1026 C.3       1 <0>        -0.0168
     10 C4          0.5188   -0.4641    0.0754 C.3       1 <0>         0.0649
     11 C5         -3.8069    0.4705    1.3219 C.2       1 <0>         0.0894
     12 C6          2.8777    0.3775   -0.0085 C.2       1 <0>         0.3785
     13 C7          4.8515   -0.9095   -0.0260 C.3       1 <0>         0.0940
     14 H1         -1.8368   -1.6528   -0.6884 H         1 <0>         0.0325
     15 H2         -1.8318   -1.5634    1.0620 H         1 <0>         0.0325
     16 H3         -4.1002   -1.2787    0.1542 H         1 <0>         0.0914
     17 H4         -1.0253    0.7455   -0.7893 H         1 <0>         0.0298
     18 H5         -0.9873    0.7914    0.9657 H         1 <0>         0.0298
     19 H6          0.6290   -1.1166   -0.7983 H         1 <0>         0.0655
     20 H7          0.6792   -1.0745    0.9715 H         1 <0>         0.0655
     21 H8         -3.1083    1.0768   -1.3200 H         1 <0>         0.2001
     22 H9         -4.6323    0.4364   -1.3408 H         1 <0>         0.2001
     23 H10        -3.3718   -0.4275   -1.9766 H         1 <0>         0.2001
     24 H11         1.1678    1.5425    0.0051 H         1 <0>         0.2579
     25 H12         3.0631    2.4610   -0.0682 H         1 <0>         0.2547
     26 H13         4.5713    1.6214   -0.0857 H         1 <0>         0.2547
     27 H14         5.3066   -0.4298    0.8467 H         1 <0>         0.0656
     28 H15         5.2601   -0.4773   -0.9453 H         1 <0>         0.0656
     29 H16         5.1387   -1.9655   -0.0055 H         1 <0>         0.0656
@<TRIPOS>BOND
     1    1   11 2
     2    2   11 1
     3    3    8 1
     4    3   21 1
     5    3   22 1
     6    3   23 1
     7    4   10 1
     8    4   12 1
     9    4   24 1
    10    5   12 1
    11    5   25 1
    12    5   26 1
    13    6   12 2
    14    6   13 1
    15    7    8 1
    16    7    9 1
    17    7   14 1
    18    7   15 1
    19    8   11 1
    20    8   16 1
    21    9   10 1
    22    9   17 1
    23    9   18 1
    24   10   19 1
    25   10   20 1
    26   13   27 1
    27   13   28 1
    28   13   29 1
