@<TRIPOS>MOLECULE
DB11828
   69    72     0     0     0
SMALL
USER_CHARGES

@<TRIPOS>ATOM
      1 Cl1        -3.0708    2.9790    2.0727 Cl        1 <0>        -0.0797
      2 O1          5.1009    0.1179    1.4207 O.3       1 <0>        -0.4903
      3 O2         -4.7957    2.1709   -0.2533 O.3       1 <0>        -0.4844
      4 O3          0.9723   -0.9107   -1.3851 O.2       1 <0>        -0.2705
      5 N1          0.4670    3.3599   -1.6092 N.pl3     1 <0>        -0.3129
      6 N2          3.7774    4.6160    0.6522 N.ar      1 <0>        -0.2535
      7 N3          2.9228   -0.8352   -0.0715 N.am      1 <0>        -0.2790
      8 N4         -0.0359   -5.8114   -0.8264 N.3       1 <0>        -0.3047
      9 N5          0.2675    6.9563   -1.6471 N.1       1 <0>        -0.1908
     10 N6         -7.5940    0.7815    0.0437 N.ar      1 <0>        -0.2565
     11 C1          2.4588    2.8290   -0.2838 C.ar      1 <0>         0.0248
     12 C2          1.5879    3.7734   -0.8439 C.ar      1 <0>         0.0597
     13 C3          3.5559    3.3008    0.4672 C.ar      1 <0>         0.0764
     14 C4          2.2581    1.4491   -0.4569 C.ar      1 <0>        -0.0259
     15 C5          3.1389    0.5327    0.1105 C.ar      1 <0>         0.0766
     16 C6          4.2213    0.9902    0.8516 C.ar      1 <0>         0.1436
     17 C7          4.4207    2.3623    1.0235 C.ar      1 <0>         0.0079
     18 C8          1.8135    5.1292   -0.6550 C.ar      1 <0>         0.0915
     19 C9         -0.8583    3.0616   -1.2596 C.ar      1 <0>         0.0330
     20 C10         2.9131    5.4947    0.0948 C.ar      1 <0>         0.0474
     21 C11        -1.2743    3.1526    0.0727 C.ar      1 <0>        -0.0186
     22 C12        -1.7751    2.6705   -2.2411 C.ar      1 <0>        -0.0370
     23 C13         6.4466    0.5632    1.5736 C.3       1 <0>         0.0869
     24 C14         1.8893   -1.4574   -0.7837 C.2       1 <0>         0.2409
     25 C15        -3.5017    2.4667   -0.5636 C.ar      1 <0>         0.1394
     26 C16        -2.5922    2.8560    0.4199 C.ar      1 <0>         0.0843
     27 C17        -3.0930    2.3738   -1.8940 C.ar      1 <0>        -0.0167
     28 C18         0.9604    6.1373   -1.2024 C.1       1 <0>         0.1026
     29 C19         1.1806   -5.2174   -1.3712 C.3       1 <0>         0.0170
     30 C20         2.0109   -2.9451   -0.7418 C.2       1 <0>        -0.0023
     31 C21         1.1121   -3.7193   -1.3661 C.2       1 <0>        -0.0652
     32 C22         7.3724   -0.6327    1.5075 C.3       1 <0>        -0.0307
     33 C23        -5.2497    0.8542   -0.5586 C.3       1 <0>         0.1314
     34 C24        -0.2462   -5.3768    0.5552 C.3       1 <0>        -0.0127
     35 C25         0.0289   -7.2718   -0.8960 C.3       1 <0>        -0.0127
     36 C26        -6.3329    0.4733    0.4074 C.ar      1 <0>         0.0784
     37 C27        -5.9877   -0.1566    1.5879 C.ar      1 <0>        -0.0370
     38 C28        -7.0148   -0.4963    2.4613 C.ar      1 <0>        -0.0585
     39 C29        -8.5658    0.4359    0.9178 C.ar      1 <0>         0.0280
     40 C30        -8.3312   -0.1979    2.1273 C.ar      1 <0>        -0.0436
     41 H1          1.4085    1.1403   -1.0453 H         1 <0>         0.0644
     42 H2          5.2427    2.7418    1.6270 H         1 <0>         0.0676
     43 H3          0.6812    3.2603   -2.5972 H         1 <0>         0.1522
     44 H4          3.1527    6.5373    0.2844 H         1 <0>         0.0843
     45 H5          3.6126   -1.4356    0.3759 H         1 <0>         0.1552
     46 H6         -0.5746    3.4546    0.8490 H         1 <0>         0.0652
     47 H7         -1.4715    2.5956   -3.2824 H         1 <0>         0.0637
     48 H8          6.5553    1.0591    2.5446 H         1 <0>         0.0694
     49 H9          6.7450    1.2502    0.7717 H         1 <0>         0.0694
     50 H10        -3.7912    2.0808   -2.6733 H         1 <0>         0.0655
     51 H11         2.0684   -5.5701   -0.8292 H         1 <0>         0.0470
     52 H12         1.3032   -5.5309   -2.4159 H         1 <0>         0.0470
     53 H13         2.8389   -3.3837   -0.1947 H         1 <0>         0.0667
     54 H14         0.2896   -3.2712   -1.9187 H         1 <0>         0.0586
     55 H15         8.4154   -0.3283    1.6317 H         1 <0>         0.0262
     56 H16         7.1211   -1.3582    2.2883 H         1 <0>         0.0262
     57 H17         7.2668   -1.1496    0.5478 H         1 <0>         0.0262
     58 H18        -5.6504    0.8454   -1.5795 H         1 <0>         0.0763
     59 H19        -4.4309    0.1236   -0.5134 H         1 <0>         0.0763
     60 H20        -0.4557   -4.3040    0.6216 H         1 <0>         0.0391
     61 H21         0.6100   -5.6095    1.1993 H         1 <0>         0.0391
     62 H22        -1.1279   -5.8728    0.9786 H         1 <0>         0.0391
     63 H23        -0.9056   -7.7162   -0.5352 H         1 <0>         0.0391
     64 H24         0.8560   -7.6787   -0.3030 H         1 <0>         0.0391
     65 H25         0.1520   -7.6028   -1.9333 H         1 <0>         0.0391
     66 H26        -4.9571   -0.3820    1.8392 H         1 <0>         0.0637
     67 H27        -6.7899   -0.9919    3.4008 H         1 <0>         0.0619
     68 H28        -9.5748    0.6906    0.6108 H         1 <0>         0.0829
     69 H29        -9.1477   -0.4533    2.7930 H         1 <0>         0.0633
@<TRIPOS>BOND
     1    1   26 1
     2    2   16 1
     3    2   23 1
     4    3   25 1
     5    3   33 1
     6    4   24 2
     7    5   12 1
     8    5   19 1
     9    5   43 1
    10    6   13 ar
    11    6   20 ar
    12    7   15 1
    13    7   24 am
    14    7   45 1
    15    8   29 1
    16    8   34 1
    17    8   35 1
    18    9   28 3
    19   10   36 ar
    20   10   39 ar
    21   11   12 ar
    22   11   13 ar
    23   11   14 ar
    24   12   18 ar
    25   13   17 ar
    26   14   15 ar
    27   14   41 1
    28   15   16 ar
    29   16   17 ar
    30   17   42 1
    31   18   20 ar
    32   18   28 1
    33   19   21 ar
    34   19   22 ar
    35   20   44 1
    36   21   26 ar
    37   21   46 1
    38   22   27 ar
    39   22   47 1
    40   23   32 1
    41   23   48 1
    42   23   49 1
    43   24   30 1
    44   25   26 ar
    45   25   27 ar
    46   27   50 1
    47   29   31 1
    48   29   51 1
    49   29   52 1
    50   30   31 2
    51   30   53 1
    52   31   54 1
    53   32   55 1
    54   32   56 1
    55   32   57 1
    56   33   36 1
    57   33   58 1
    58   33   59 1
    59   34   60 1
    60   34   61 1
    61   34   62 1
    62   35   63 1
    63   35   64 1
    64   35   65 1
    65   36   37 ar
    66   37   38 ar
    67   37   66 1
    68   38   40 ar
    69   38   67 1
    70   39   40 ar
    71   39   68 1
    72   40   69 1
