@<TRIPOS>MOLECULE
DB11125
   72    73     0     0     0
SMALL
USER_CHARGES

@<TRIPOS>ATOM
      1 O1         -2.0413    2.1178   -0.1271 O.3       1 <0>        -0.3712
      2 O2          0.2675    2.5662    1.3939 O.3       1 <0>        -0.4897
      3 N1         -5.3145    0.5279   -0.7787 N.4       1 <0>         0.2439
      4 C1          5.2945    0.0595    0.8670 C.3       1 <0>        -0.0094
      5 C2          4.5845   -1.5304   -1.2610 C.3       1 <0>        -0.0369
      6 C3          5.2111   -1.3419    0.1600 C.3       1 <0>        -0.0389
      7 C4          3.9206    0.7448    1.0111 C.ar      1 <0>        -0.0415
      8 C5          6.3630    0.9433    0.1896 C.3       1 <0>        -0.0558
      9 C6          5.8164   -0.1932    2.3115 C.3       1 <0>        -0.0558
     10 C7          3.1341   -1.0461   -1.3717 C.3       1 <0>        -0.0600
     11 C8          5.4302   -0.8516   -2.3558 C.3       1 <0>        -0.0600
     12 C9          4.5969   -3.0491   -1.5659 C.3       1 <0>        -0.0600
     13 C10        -3.8410    0.6074   -0.6165 C.3       1 <0>        -0.0063
     14 C11        -5.7424   -0.8896   -1.1825 C.3       1 <0>        -0.0046
     15 C12         3.7595    1.9912    0.4653 C.ar      1 <0>        -0.0546
     16 C13         2.9300    0.0732    1.6776 C.ar      1 <0>        -0.0546
     17 C14        -6.0270    0.8861    0.5326 C.3       1 <0>        -0.0411
     18 C15        -5.7959    1.4995   -1.8647 C.3       1 <0>        -0.0411
     19 C16        -3.4539    2.0263   -0.2485 C.3       1 <0>         0.0877
     20 C17        -5.3908   -1.9249   -0.1550 C.ar      1 <0>        -0.0028
     21 C18         2.5167    2.6111    0.5954 C.ar      1 <0>        -0.0197
     22 C19         1.6872    0.6929    1.8078 C.ar      1 <0>        -0.0197
     23 C20         1.4804    1.9620    1.2669 C.ar      1 <0>         0.1206
     24 C21        -4.1603   -2.5693   -0.2198 C.ar      1 <0>        -0.0535
     25 C22        -6.2984   -2.2305    0.8533 C.ar      1 <0>        -0.0535
     26 C23        -1.6321    3.4356    0.2180 C.3       1 <0>         0.0820
     27 C24        -0.1222    3.4648    0.3564 C.3       1 <0>         0.1128
     28 C25        -3.8334   -3.5316    0.7355 C.ar      1 <0>        -0.0613
     29 C26        -5.9713   -3.1928    1.8087 C.ar      1 <0>        -0.0613
     30 C27        -4.7388   -3.8433    1.7497 C.ar      1 <0>        -0.0617
     31 H1          4.6632   -2.0196    0.8316 H         1 <0>         0.0279
     32 H2          6.2305   -1.7560    0.1307 H         1 <0>         0.0279
     33 H3          6.5780    1.8407    0.7836 H         1 <0>         0.0238
     34 H4          7.3110    0.3999    0.0928 H         1 <0>         0.0238
     35 H5          6.0873    1.2779   -0.8111 H         1 <0>         0.0238
     36 H6          5.1975   -0.9031    2.8709 H         1 <0>         0.0238
     37 H7          5.8538    0.7378    2.8907 H         1 <0>         0.0238
     38 H8          6.8311   -0.6091    2.2918 H         1 <0>         0.0238
     39 H9          2.6940   -1.3721   -2.3229 H         1 <0>         0.0235
     40 H10         2.5072   -1.4663   -0.5797 H         1 <0>         0.0235
     41 H11         3.0531    0.0419   -1.3709 H         1 <0>         0.0235
     42 H12         6.4991   -1.0451   -2.2161 H         1 <0>         0.0235
     43 H13         5.1566   -1.2229   -3.3508 H         1 <0>         0.0235
     44 H14         5.2684    0.2287   -2.3823 H         1 <0>         0.0235
     45 H15         3.9955   -3.6028   -0.8358 H         1 <0>         0.0235
     46 H16         5.6161   -3.4510   -1.5344 H         1 <0>         0.0235
     47 H17         4.1872   -3.2635   -2.5596 H         1 <0>         0.0235
     48 H18        -3.3574    0.2941   -1.5496 H         1 <0>         0.0838
     49 H19        -3.5110   -0.0607    0.1849 H         1 <0>         0.0838
     50 H20        -6.8256   -0.8765   -1.3606 H         1 <0>         0.0868
     51 H21        -5.2615   -1.1116   -2.1441 H         1 <0>         0.0868
     52 H22         4.5292    2.5435   -0.0576 H         1 <0>         0.0622
     53 H23         3.0637   -0.9163    2.1001 H         1 <0>         0.0622
     54 H24        -5.5391    0.3757    1.3672 H         1 <0>         0.0778
     55 H25        -5.9803    1.9686    0.6839 H         1 <0>         0.0778
     56 H26        -7.0807    0.6037    0.4453 H         1 <0>         0.0778
     57 H27        -6.8425    1.2685   -2.0881 H         1 <0>         0.0778
     58 H28        -5.1807    1.3533   -2.7572 H         1 <0>         0.0778
     59 H29        -5.7397    2.5288   -1.5025 H         1 <0>         0.0778
     60 H30        -3.8869    2.3278    0.7099 H         1 <0>         0.0613
     61 H31        -3.7515    2.7447   -1.0168 H         1 <0>         0.0613
     62 H32         2.4059    3.6109    0.1857 H         1 <0>         0.0654
     63 H33         0.8827    0.1816    2.3294 H         1 <0>         0.0654
     64 H34        -3.4488   -2.3434   -1.0091 H         1 <0>         0.0622
     65 H35        -7.2686   -1.7450    0.9058 H         1 <0>         0.0622
     66 H36        -2.0937    3.7137    1.1728 H         1 <0>         0.0594
     67 H37        -1.9493    4.1416   -0.5575 H         1 <0>         0.0594
     68 H38         0.3002    3.1614   -0.6103 H         1 <0>         0.0720
     69 H39         0.2130    4.4764    0.6090 H         1 <0>         0.0720
     70 H40        -2.8746   -4.0398    0.6886 H         1 <0>         0.0618
     71 H41        -6.6776   -3.4382    2.5964 H         1 <0>         0.0618
     72 H42        -4.4846   -4.5934    2.4929 H         1 <0>         0.0618
@<TRIPOS>BOND
     1    1   19 1
     2    1   26 1
     3    2   23 1
     4    2   27 1
     5    3   13 1
     6    3   14 1
     7    3   17 1
     8    3   18 1
     9    4    6 1
    10    4    7 1
    11    4    8 1
    12    4    9 1
    13    5    6 1
    14    5   10 1
    15    5   11 1
    16    5   12 1
    17    6   31 1
    18    6   32 1
    19    7   15 ar
    20    7   16 ar
    21    8   33 1
    22    8   34 1
    23    8   35 1
    24    9   36 1
    25    9   37 1
    26    9   38 1
    27   10   39 1
    28   10   40 1
    29   10   41 1
    30   11   42 1
    31   11   43 1
    32   11   44 1
    33   12   45 1
    34   12   46 1
    35   12   47 1
    36   13   19 1
    37   13   48 1
    38   13   49 1
    39   14   20 1
    40   14   50 1
    41   14   51 1
    42   15   21 ar
    43   15   52 1
    44   16   22 ar
    45   16   53 1
    46   17   54 1
    47   17   55 1
    48   17   56 1
    49   18   57 1
    50   18   58 1
    51   18   59 1
    52   19   60 1
    53   19   61 1
    54   20   24 ar
    55   20   25 ar
    56   21   23 ar
    57   21   62 1
    58   22   23 ar
    59   22   63 1
    60   24   28 ar
    61   24   64 1
    62   25   29 ar
    63   25   65 1
    64   26   27 1
    65   26   66 1
    66   26   67 1
    67   27   68 1
    68   27   69 1
    69   28   30 ar
    70   28   70 1
    71   29   30 ar
    72   29   71 1
    73   30   72 1
