@<TRIPOS>MOLECULE
DB11596
   57    59     0     0     0
SMALL
USER_CHARGES

@<TRIPOS>ATOM
      1 O1          5.1339   -1.8724    1.9216 O.2       1 <0>        -0.2636
      2 O2          4.1183   -3.1480   -1.6738 O.2       1 <0>        -0.2790
      3 O3         -3.8123   -2.4395    1.8246 O.2       1 <0>        -0.2702
      4 O4         -7.5263   -2.1250    0.8170 O.3       1 <0>        -0.4793
      5 O5         -6.3852   -1.6416   -1.0841 O.2       1 <0>        -0.2489
      6 O6         -6.9522    3.6357   -1.4834 O.3       1 <0>        -0.4806
      7 O7         -7.2547    3.6185    0.7652 O.2       1 <0>        -0.2510
      8 N1          4.6107   -1.0202   -0.8093 N.am      1 <0>        -0.2607
      9 N2          5.0242    1.6943   -1.1916 N.pl3     1 <0>        -0.3270
     10 N3          1.7965   -1.2439   -0.9644 N.pl3     1 <0>        -0.3420
     11 N4          6.0544    1.8205    0.9749 N.pl3     1 <0>        -0.3147
     12 N5          6.4403   -0.0528    2.3410 N.2       1 <0>        -0.1758
     13 N6         -4.3968   -0.5859    0.5599 N.am      1 <0>        -0.2983
     14 N7          7.3637    2.0499    2.8509 N.pl3     1 <0>        -0.3289
     15 C1          3.8479   -0.3205   -1.8732 C.3       1 <0>         0.0619
     16 C2          4.5740    0.9458   -2.3410 C.3       1 <0>         0.0309
     17 C3          2.4191   -0.0252   -1.4023 C.3       1 <0>         0.0296
     18 C4          5.2301   -0.2365    0.1764 C.2       1 <0>         0.1416
     19 C5          5.4207    1.0954   -0.0104 C.2       1 <0>         0.1261
     20 C6          5.6032   -0.8066    1.5343 C.2       1 <0>         0.2979
     21 C7          4.6508   -2.4131   -0.8468 C.2       1 <0>         0.2073
     22 C8          0.4972   -1.3202   -0.4776 C.ar      1 <0>         0.0272
     23 C9          6.6060    1.2139    2.0734 C.cat     1 <0>         0.1951
     24 C10        -0.3042   -0.1693   -0.3863 C.ar      1 <0>        -0.0401
     25 C11        -0.0453   -2.5501   -0.0670 C.ar      1 <0>        -0.0401
     26 C12        -5.7752   -0.5181    0.9889 C.3       1 <0>         0.1209
     27 C13        -6.3176    0.9160    1.0146 C.3       1 <0>        -0.0140
     28 C14        -2.1319   -1.4745    0.5042 C.ar      1 <0>         0.0368
     29 C15        -1.6089   -0.2458    0.1010 C.ar      1 <0>        -0.0479
     30 C16        -1.3502   -2.6267    0.4202 C.ar      1 <0>        -0.0479
     31 C17        -3.4928   -1.5546    1.0112 C.2       1 <0>         0.2447
     32 C18        -6.3563    1.6402   -0.3372 C.3       1 <0>         0.0470
     33 C19        -6.5752   -1.4588    0.1114 C.2       1 <0>         0.3253
     34 C20        -6.8875    3.0550   -0.2564 C.2       1 <0>         0.3048
     35 H1          3.7755   -0.9911   -2.7400 H         1 <0>         0.0535
     36 H2          5.4517    0.6661   -2.9360 H         1 <0>         0.0480
     37 H3          3.9314    1.5663   -2.9743 H         1 <0>         0.0480
     38 H4          1.8542    0.4164   -2.2324 H         1 <0>         0.0480
     39 H5          2.4363    0.6992   -0.5792 H         1 <0>         0.0480
     40 H6          5.2343    2.6811   -1.2946 H         1 <0>         0.1475
     41 H7          2.2658   -2.1268   -1.1256 H         1 <0>         0.1461
     42 H8          6.1956    2.8080    0.7926 H         1 <0>         0.1698
     43 H9          5.2951   -2.8546   -0.0769 H         1 <0>         0.1257
     44 H10        -5.8089   -0.9148    2.0118 H         1 <0>         0.0614
     45 H11         0.0655    0.8082   -0.6841 H         1 <0>         0.0636
     46 H12         0.5509   -3.4578   -0.1270 H         1 <0>         0.0636
     47 H13        -7.3352    0.8993    1.4266 H         1 <0>         0.0294
     48 H14        -5.7135    1.5101    1.7130 H         1 <0>         0.0294
     49 H15        -2.1743    0.6785    0.1773 H         1 <0>         0.0626
     50 H16        -1.7409   -3.5940    0.7251 H         1 <0>         0.0626
     51 H17        -4.1149    0.0397   -0.1868 H         1 <0>         0.1498
     52 H18        -5.3489    1.6994   -0.7620 H         1 <0>         0.0378
     53 H19        -7.0000    1.0887   -1.0311 H         1 <0>         0.0378
     54 H20         7.4789    3.0300    2.6174 H         1 <0>         0.1451
     55 H21         7.8282    1.7120    3.6866 H         1 <0>         0.1451
     56 H22        -8.0326   -2.7463    0.2514 H         1 <0>         0.2951
     57 H23        -7.3130    4.5467   -1.4377 H         1 <0>         0.2951
@<TRIPOS>BOND
     1    1   20 2
     2    2   21 2
     3    3   31 2
     4    4   33 1
     5    4   56 1
     6    5   33 2
     7    6   34 1
     8    6   57 1
     9    7   34 2
    10    8   15 1
    11    8   18 1
    12    8   21 am
    13    9   16 1
    14    9   19 1
    15    9   40 1
    16   10   17 1
    17   10   22 1
    18   10   41 1
    19   11   19 1
    20   11   23 2
    21   11   42 1
    22   12   20 1
    23   12   23 1
    24   13   26 1
    25   13   31 am
    26   13   51 1
    27   14   23 1
    28   14   54 1
    29   14   55 1
    30   15   16 1
    31   15   17 1
    32   15   35 1
    33   16   36 1
    34   16   37 1
    35   17   38 1
    36   17   39 1
    37   18   19 2
    38   18   20 1
    39   21   43 1
    40   22   24 ar
    41   22   25 ar
    42   24   29 ar
    43   24   45 1
    44   25   30 ar
    45   25   46 1
    46   26   27 1
    47   26   33 1
    48   26   44 1
    49   27   32 1
    50   27   47 1
    51   27   48 1
    52   28   29 ar
    53   28   30 ar
    54   28   31 1
    55   29   49 1
    56   30   50 1
    57   32   34 1
    58   32   52 1
    59   32   53 1
