@<TRIPOS>MOLECULE
DB11431
   99   103     0     0     0
SMALL
USER_CHARGES

@<TRIPOS>ATOM
      1 O1          1.7631   -0.3887   -1.6789 O.3       1 <0>        -0.3444
      2 O2          2.4211    1.4184   -0.2221 O.3       1 <0>        -0.3400
      3 O3         -6.5626    0.9932   -0.7247 O.3       1 <0>        -0.3661
      4 O4         -1.8895    1.0553   -0.4524 O.3       1 <0>        -0.4606
      5 O5         -4.3706    1.1755    2.1006 O.3       1 <0>        -0.3804
      6 O6         -7.9279    3.1485    0.3007 O.3       1 <0>        -0.3848
      7 O7         -1.8471    2.8387    1.0110 O.2       1 <0>        -0.2501
      8 O8          3.6723    0.8395   -4.6571 O.3       1 <0>        -0.3971
      9 N1          4.5749    1.0110   -3.6008 N.2       1 <0>        -0.0938
     10 C1          1.7601    1.0284   -1.4377 C.3       1 <0>         0.1796
     11 C2         -4.7575    1.1762    0.7374 C.3       1 <0>         0.1344
     12 C3         -6.2529    1.4419    0.6085 C.3       1 <0>         0.1222
     13 C4          0.3047    1.5162   -1.3564 C.3       1 <0>         0.0390
     14 C5         -0.4878    0.7552   -0.2952 C.3       1 <0>         0.1103
     15 C6         -3.9232    2.1729   -0.1115 C.3       1 <0>         0.1099
     16 C7         -0.3332   -0.7498   -0.5030 C.3       1 <0>         0.0113
     17 C8          1.1277   -1.1639   -0.6534 C.3       1 <0>         0.0687
     18 C9          2.4350    1.7109   -2.6364 C.3       1 <0>         0.0436
     19 C10        -6.6443    2.9023    0.8689 C.3       1 <0>         0.1052
     20 C11        -4.7198   -0.1968    0.1151 C.2       1 <0>        -0.0094
     21 C12         3.8085    1.0583   -0.1633 C.3       1 <0>         0.0905
     22 C13         4.6039    1.7851   -1.2617 C.3       1 <0>         0.0281
     23 C14         3.9221    1.4569   -2.5780 C.2       1 <0>         0.0682
     24 C15        -4.4109    3.5919   -0.0197 C.2       1 <0>        -0.0658
     25 C16        -5.6396    3.9334    0.4061 C.2       1 <0>        -0.0450
     26 C17        -5.8107   -0.2306   -0.9158 C.3       1 <0>         0.0724
     27 C18        -2.4363    2.0991    0.2362 C.2       1 <0>         0.3175
     28 C19         1.2575   -2.6418   -1.0604 C.3       1 <0>        -0.0079
     29 C20         4.2743    1.4054    1.2140 C.2       1 <0>        -0.0472
     30 C21         6.0870    1.4205   -1.2594 C.3       1 <0>        -0.0545
     31 C22        -3.8931   -1.1887    0.4768 C.2       1 <0>        -0.0578
     32 C23        -6.0600    5.3738    0.4897 C.3       1 <0>        -0.0413
     33 C24         0.9559   -3.6009    0.0577 C.2       1 <0>        -0.0826
     34 C25         4.7250    0.5317    2.1349 C.2       1 <0>        -0.0800
     35 C26         4.2073    2.8763    1.5334 C.3       1 <0>        -0.0413
     36 C27        -3.7611   -2.4684   -0.1802 C.2       1 <0>        -0.0653
     37 C28        -0.0155   -4.5331    0.1562 C.2       1 <0>        -0.0759
     38 C29        -1.0900   -4.7941   -0.8885 C.3       1 <0>        -0.0260
     39 C30        -2.5853   -4.6814   -0.4758 C.3       1 <0>        -0.0218
     40 C31         5.2081    0.8149    3.5372 C.3       1 <0>        -0.0282
     41 C32        -2.8800   -3.3890    0.2418 C.2       1 <0>        -0.0809
     42 C33        -0.0100   -5.4441    1.3570 C.3       1 <0>        -0.0438
     43 C34        -3.0901   -5.8745    0.3383 C.3       1 <0>        -0.0587
     44 C35         6.7096    1.1048    3.5236 C.3       1 <0>        -0.0592
     45 C36         4.9016   -0.3765    4.4457 C.3       1 <0>        -0.0592
     46 C37         4.3957    0.3500   -5.7765 C.3       1 <0>         0.1072
     47 H1         -6.8418    0.8175    1.2976 H         1 <0>         0.0658
     48 H2         -0.1941    1.3801   -2.3258 H         1 <0>         0.0353
     49 H3          0.2635    2.5892   -1.1310 H         1 <0>         0.0353
     50 H4         -0.1487    1.0215    0.7135 H         1 <0>         0.0736
     51 H5         -3.9986    1.9329   -1.1834 H         1 <0>         0.0489
     52 H6         -0.8969   -1.0398   -1.4002 H         1 <0>         0.0326
     53 H7         -0.7960   -1.2783    0.3361 H         1 <0>         0.0326
     54 H8          1.6632   -0.9999    0.2901 H         1 <0>         0.0601
     55 H9          2.3165    2.7999   -2.5650 H         1 <0>         0.0378
     56 H10         1.9445    1.3850   -3.5553 H         1 <0>         0.0378
     57 H11        -6.7418    3.0386    1.9543 H         1 <0>         0.0667
     58 H12         3.8887   -0.0270   -0.3105 H         1 <0>         0.0650
     59 H13         4.5029    2.8734   -1.1607 H         1 <0>         0.0388
     60 H14        -3.7320    4.3721   -0.3574 H         1 <0>         0.0581
     61 H15        -5.4189   -0.2297   -1.9365 H         1 <0>         0.0608
     62 H16        -6.4907   -1.0750   -0.7689 H         1 <0>         0.0608
     63 H17         2.2934   -2.8263   -1.3767 H         1 <0>         0.0332
     64 H18         0.6616   -2.8328   -1.9580 H         1 <0>         0.0332
     65 H19        -4.9198    0.5302    2.5778 H         1 <0>         0.2108
     66 H20         6.6122    1.9144   -2.0844 H         1 <0>         0.0237
     67 H21         6.5761    1.7315   -0.3311 H         1 <0>         0.0237
     68 H22         6.2309    0.3404   -1.3753 H         1 <0>         0.0237
     69 H23        -3.1925   -1.0008    1.2887 H         1 <0>         0.0619
     70 H24        -6.3763    5.6176    1.5092 H         1 <0>         0.0275
     71 H25        -6.8940    5.5710   -0.1913 H         1 <0>         0.0275
     72 H26        -5.2471    6.0580    0.2240 H         1 <0>         0.0275
     73 H27        -8.5441    2.4949    0.6730 H         1 <0>         0.2103
     74 H28         1.6696   -3.5318    0.8792 H         1 <0>         0.0572
     75 H29         4.7756   -0.5138    1.8303 H         1 <0>         0.0575
     76 H30         4.3393    3.1171    2.5894 H         1 <0>         0.0275
     77 H31         3.2350    3.2952    1.2528 H         1 <0>         0.0275
     78 H32         4.9855    3.4234    0.9915 H         1 <0>         0.0275
     79 H33        -4.3463   -2.6476   -1.0769 H         1 <0>         0.0615
     80 H34        -0.9526   -4.1151   -1.7372 H         1 <0>         0.0315
     81 H35        -0.9165   -5.7970   -1.3017 H         1 <0>         0.0315
     82 H36        -3.1541   -4.6999   -1.4166 H         1 <0>         0.0343
     83 H37         4.6847    1.6732    3.9685 H         1 <0>         0.0338
     84 H38        -2.3059   -3.1949    1.1459 H         1 <0>         0.0575
     85 H39         0.9529   -5.4334    1.8801 H         1 <0>         0.0274
     86 H40        -0.1933   -6.4806    1.0558 H         1 <0>         0.0274
     87 H41        -0.7736   -5.1372    2.0767 H         1 <0>         0.0274
     88 H42        -2.7261   -5.8707    1.3685 H         1 <0>         0.0235
     89 H43        -4.1853   -5.8615    0.3898 H         1 <0>         0.0235
     90 H44        -2.7955   -6.8202   -0.1284 H         1 <0>         0.0235
     91 H45         6.9373    1.9813    2.9069 H         1 <0>         0.0235
     92 H46         7.0727    1.3087    4.5368 H         1 <0>         0.0235
     93 H47         7.2797    0.2568    3.1270 H         1 <0>         0.0235
     94 H48         5.4199   -1.2834    4.1138 H         1 <0>         0.0235
     95 H49         3.8270   -0.5896    4.4643 H         1 <0>         0.0235
     96 H50         5.2177   -0.1690    5.4738 H         1 <0>         0.0235
     97 H51         4.8544   -0.6152   -5.5406 H         1 <0>         0.0687
     98 H52         5.1637    1.0693   -6.0777 H         1 <0>         0.0687
     99 H53         3.6978    0.2134   -6.6067 H         1 <0>         0.0687
@<TRIPOS>BOND
     1    1   10 1
     2    1   17 1
     3    2   10 1
     4    2   21 1
     5    3   12 1
     6    3   26 1
     7    4   14 1
     8    4   27 1
     9    5   11 1
    10    5   65 1
    11    6   19 1
    12    6   73 1
    13    7   27 2
    14    8    9 1
    15    8   46 1
    16    9   23 2
    17   10   13 1
    18   10   18 1
    19   11   12 1
    20   11   15 1
    21   11   20 1
    22   12   19 1
    23   12   47 1
    24   13   14 1
    25   13   48 1
    26   13   49 1
    27   14   16 1
    28   14   50 1
    29   15   24 1
    30   15   27 1
    31   15   51 1
    32   16   17 1
    33   16   52 1
    34   16   53 1
    35   17   28 1
    36   17   54 1
    37   18   23 1
    38   18   55 1
    39   18   56 1
    40   19   25 1
    41   19   57 1
    42   20   26 1
    43   20   31 2
    44   21   22 1
    45   21   29 1
    46   21   58 1
    47   22   23 1
    48   22   30 1
    49   22   59 1
    50   24   25 2
    51   24   60 1
    52   25   32 1
    53   26   61 1
    54   26   62 1
    55   28   33 1
    56   28   63 1
    57   28   64 1
    58   29   34 2
    59   29   35 1
    60   30   66 1
    61   30   67 1
    62   30   68 1
    63   31   36 1
    64   31   69 1
    65   32   70 1
    66   32   71 1
    67   32   72 1
    68   33   37 2
    69   33   74 1
    70   34   40 1
    71   34   75 1
    72   35   76 1
    73   35   77 1
    74   35   78 1
    75   36   41 2
    76   36   79 1
    77   37   38 1
    78   37   42 1
    79   38   39 1
    80   38   80 1
    81   38   81 1
    82   39   41 1
    83   39   43 1
    84   39   82 1
    85   40   44 1
    86   40   45 1
    87   40   83 1
    88   41   84 1
    89   42   85 1
    90   42   86 1
    91   42   87 1
    92   43   88 1
    93   43   89 1
    94   43   90 1
    95   44   91 1
    96   44   92 1
    97   44   93 1
    98   45   94 1
    99   45   95 1
   100   45   96 1
   101   46   97 1
   102   46   98 1
   103   46   99 1
