@<TRIPOS>MOLECULE
DB11837
   27    29     0     0     0
SMALL
USER_CHARGES

@<TRIPOS>ATOM
      1 F1         -1.4866    2.1503    1.6329 F         1 <0>        -0.2051
      2 N1          1.5676    0.7791   -0.2590 N.pl3     1 <0>        -0.3265
      3 N2          2.7131    1.4882   -1.9809 N.2       1 <0>        -0.2438
      4 N3         -5.7557   -0.7526   -1.1106 N.1       1 <0>        -0.1909
      5 C1          0.7117    0.5184    0.8922 C.3       1 <0>         0.0636
      6 C2          1.4673   -0.6583    1.5758 C.3       1 <0>        -0.0225
      7 C3          2.4258   -1.2632    0.5105 C.3       1 <0>        -0.0086
      8 C4          2.5179   -0.1717   -0.4699 C.cat     1 <0>         0.0388
      9 C5         -0.7061    0.2429    0.4542 C.ar      1 <0>         0.0105
     10 C6          1.7154    1.7679   -1.1592 C.cat     1 <0>         0.0966
     11 C7          3.2225    0.2712   -1.5537 C.2       1 <0>         0.0486
     12 C8         -1.7407    1.0876    0.8566 C.ar      1 <0>         0.1297
     13 C9         -0.9808   -0.8600   -0.3544 C.ar      1 <0>        -0.0527
     14 C10        -3.0499    0.8292    0.4504 C.ar      1 <0>        -0.0087
     15 C11        -2.2901   -1.1185   -0.7603 C.ar      1 <0>        -0.0439
     16 C12        -3.3246   -0.2739   -0.3579 C.ar      1 <0>         0.0545
     17 C13        -4.6661   -0.5379   -0.7733 C.1       1 <0>         0.0992
     18 H1          0.7651    1.4073    1.5321 H         1 <0>         0.0579
     19 H2          0.8059   -1.4139    2.0127 H         1 <0>         0.0292
     20 H3          2.0769   -0.2541    2.3956 H         1 <0>         0.0292
     21 H4          1.9918   -2.1607    0.0597 H         1 <0>         0.0329
     22 H5          3.3933   -1.5184    0.9512 H         1 <0>         0.0329
     23 H6          1.0967    2.6535   -1.1905 H         1 <0>         0.1029
     24 H7          4.0609   -0.1928   -2.0513 H         1 <0>         0.0848
     25 H8         -0.1975   -1.5345   -0.6846 H         1 <0>         0.0622
     26 H9         -3.8452    1.4970    0.7724 H         1 <0>         0.0659
     27 H10        -2.4885   -1.9821   -1.3907 H         1 <0>         0.0630
@<TRIPOS>BOND
     1    1   12 1
     2    2    5 1
     3    2    8 1
     4    2   10 2
     5    3   10 1
     6    3   11 2
     7    4   17 3
     8    5    6 1
     9    5    9 1
    10    5   18 1
    11    6    7 1
    12    6   19 1
    13    6   20 1
    14    7    8 1
    15    7   21 1
    16    7   22 1
    17    8   11 1
    18    9   12 ar
    19    9   13 ar
    20   10   23 1
    21   11   24 1
    22   12   14 ar
    23   13   15 ar
    24   13   25 1
    25   14   16 ar
    26   14   26 1
    27   15   16 ar
    28   15   27 1
    29   16   17 1
