@<TRIPOS>MOLECULE
DB11614
   56    60     0     0     0
SMALL
USER_CHARGES

@<TRIPOS>ATOM
      1 Cl1        -6.5569    3.8122   -0.4368 Cl        1 <0>        -0.0835
      2 N1          1.8421    1.2400    0.3016 N.3       1 <0>        -0.2975
      3 N2         -1.6099   -2.2302   -1.7390 N.ar      1 <0>        -0.2547
      4 N3          5.8812   -0.6129    1.9985 N.ar      1 <0>        -0.2627
      5 C1         -0.7252    0.3682   -0.6893 C.2       1 <0>        -0.0574
      6 C2          0.4842   -0.5189   -0.8073 C.3       1 <0>        -0.0179
      7 C3         -0.4030    1.8334   -0.5784 C.3       1 <0>        -0.0179
      8 C4          1.4979   -0.1920    0.2949 C.3       1 <0>         0.0029
      9 C5          0.6447    2.0701    0.5154 C.3       1 <0>         0.0029
     10 C6         -1.9774   -0.1073   -0.6533 C.2       1 <0>         0.0073
     11 C7          2.8473    1.5189    1.3273 C.3       1 <0>         0.0255
     12 C8         -3.1241    0.8344   -0.5351 C.ar      1 <0>        -0.0126
     13 C9         -2.1060   -1.5781   -0.6568 C.ar      1 <0>         0.0747
     14 C10        -4.2314    0.6082    0.3130 C.ar      1 <0>        -0.0379
     15 C11        -4.4387   -0.5948    1.2162 C.3       1 <0>        -0.0230
     16 C12        -3.2315   -1.4512    1.5958 C.3       1 <0>        -0.0216
     17 C13        -2.7062   -2.2266    0.4218 C.ar      1 <0>        -0.0211
     18 C14         4.1164    0.7431    1.0945 C.ar      1 <0>        -0.0150
     19 C15        -3.1293    1.9844   -1.3570 C.ar      1 <0>        -0.0523
     20 C16        -5.2881    1.5473    0.3131 C.ar      1 <0>        -0.0396
     21 C17        -2.7970   -3.6200    0.3694 C.ar      1 <0>        -0.0551
     22 C18        -4.1798    2.9016   -1.3301 C.ar      1 <0>        -0.0428
     23 C19        -5.2608    2.6839   -0.4914 C.ar      1 <0>         0.0413
     24 C20         4.6680    0.6684   -0.1696 C.ar      1 <0>        -0.0516
     25 C21         4.7409    0.0997    2.1387 C.ar      1 <0>         0.0320
     26 C22        -2.2994   -4.3112   -0.7293 C.ar      1 <0>        -0.0433
     27 C23        -1.7203   -3.5766   -1.7478 C.ar      1 <0>         0.0283
     28 C24         5.8408   -0.0556   -0.3536 C.ar      1 <0>        -0.0321
     29 C25         6.4028   -0.6720    0.7526 C.ar      1 <0>         0.0305
     30 C26         6.4718   -0.1647   -1.6964 C.3       1 <0>        -0.0383
     31 H1          0.3215   -1.5921   -0.7214 H         1 <0>         0.0323
     32 H2          0.9447   -0.3508   -1.7898 H         1 <0>         0.0323
     33 H3         -0.0195    2.1951   -1.5409 H         1 <0>         0.0323
     34 H4         -1.2106    2.4920   -0.2665 H         1 <0>         0.0323
     35 H5          1.0896   -0.4946    1.2697 H         1 <0>         0.0430
     36 H6          2.3716   -0.8246    0.1061 H         1 <0>         0.0430
     37 H7          0.9258    3.1306    0.4953 H         1 <0>         0.0430
     38 H8          0.2044    1.8690    1.5020 H         1 <0>         0.0430
     39 H9          2.4468    1.3013    2.3266 H         1 <0>         0.0476
     40 H10         3.1119    2.5843    1.3141 H         1 <0>         0.0476
     41 H11        -4.8649   -0.2278    2.1601 H         1 <0>         0.0317
     42 H12        -5.2028   -1.2311    0.7493 H         1 <0>         0.0317
     43 H13        -3.5355   -2.1500    2.3857 H         1 <0>         0.0317
     44 H14        -2.4305   -0.8392    2.0293 H         1 <0>         0.0317
     45 H15        -2.3621    2.1511   -2.1113 H         1 <0>         0.0624
     46 H16        -6.1485    1.3759    0.9596 H         1 <0>         0.0635
     47 H17        -3.2564   -4.1752    1.1828 H         1 <0>         0.0621
     48 H18        -4.1468    3.7665   -1.9875 H         1 <0>         0.0632
     49 H19         4.2088    1.1729   -1.0155 H         1 <0>         0.0624
     50 H20         4.3473    0.1296    3.1494 H         1 <0>         0.0833
     51 H21        -2.3629   -5.3919   -0.7844 H         1 <0>         0.0633
     52 H22        -1.3152   -4.0671   -2.6266 H         1 <0>         0.0830
     53 H23         7.3168   -1.2527    0.6729 H         1 <0>         0.0832
     54 H24         7.5448   -0.3697   -1.6169 H         1 <0>         0.0278
     55 H25         6.0048   -0.9734   -2.2672 H         1 <0>         0.0278
     56 H26         6.3638    0.7703   -2.2564 H         1 <0>         0.0278
@<TRIPOS>BOND
     1    1   23 1
     2    2    8 1
     3    2    9 1
     4    2   11 1
     5    3   13 ar
     6    3   27 ar
     7    4   25 ar
     8    4   29 ar
     9    5    6 1
    10    5    7 1
    11    5   10 2
    12    6    8 1
    13    6   31 1
    14    6   32 1
    15    7    9 1
    16    7   33 1
    17    7   34 1
    18    8   35 1
    19    8   36 1
    20    9   37 1
    21    9   38 1
    22   10   12 1
    23   10   13 1
    24   11   18 1
    25   11   39 1
    26   11   40 1
    27   12   14 ar
    28   12   19 ar
    29   13   17 ar
    30   14   15 1
    31   14   20 ar
    32   15   16 1
    33   15   41 1
    34   15   42 1
    35   16   17 1
    36   16   43 1
    37   16   44 1
    38   17   21 ar
    39   18   24 ar
    40   18   25 ar
    41   19   22 ar
    42   19   45 1
    43   20   23 ar
    44   20   46 1
    45   21   26 ar
    46   21   47 1
    47   22   23 ar
    48   22   48 1
    49   24   28 ar
    50   24   49 1
    51   25   50 1
    52   26   27 ar
    53   26   51 1
    54   27   52 1
    55   28   29 ar
    56   28   30 1
    57   29   53 1
    58   30   54 1
    59   30   55 1
    60   30   56 1
