@<TRIPOS>MOLECULE
DB11121
   19    19     0     0     0
SMALL
USER_CHARGES

@<TRIPOS>ATOM
      1 Cl1         0.3956    2.7242    0.0014 Cl        1 <0>        -0.0830
      2 O1         -0.3470   -3.1111    0.0004 O.3       1 <0>        -0.5068
      3 C1          1.2875    0.1620   -0.0010 C.ar      1 <0>        -0.0284
      4 C2         -1.1091    0.4671    0.0004 C.ar      1 <0>        -0.0284
      5 C3          0.1772    1.0064   -0.0003 C.ar      1 <0>         0.0470
      6 C4          1.1114   -1.2217   -0.0012 C.ar      1 <0>        -0.0159
      7 C5         -1.2853   -0.9166    0.0004 C.ar      1 <0>        -0.0159
      8 C6         -0.1749   -1.7610   -0.0004 C.ar      1 <0>         0.1174
      9 C7          2.6840    0.6959    0.0002 C.3       1 <0>        -0.0382
     10 C8         -2.3279    1.3331   -0.0005 C.3       1 <0>        -0.0382
     11 H1          1.9685   -1.8908   -0.0014 H         1 <0>         0.0657
     12 H2         -2.2857   -1.3429    0.0009 H         1 <0>         0.0657
     13 H3          2.8652    1.3035   -0.8925 H         1 <0>         0.0278
     14 H4          2.8653    1.2984    0.8965 H         1 <0>         0.0278
     15 H5          3.4284   -0.1081   -0.0023 H         1 <0>         0.0278
     16 H6         -2.3521    1.9651    0.8935 H         1 <0>         0.0278
     17 H7         -2.3519    1.9635   -0.8955 H         1 <0>         0.0278
     18 H8         -3.2499    0.7412    0.0000 H         1 <0>         0.0278
     19 H9         -1.2993   -3.3081    0.0011 H         1 <0>         0.2921
@<TRIPOS>BOND
     1    1    5 1
     2    2    8 1
     3    2   19 1
     4    3    5 ar
     5    3    6 ar
     6    3    9 1
     7    4    5 ar
     8    4    7 ar
     9    4   10 1
    10    6    8 ar
    11    6   11 1
    12    7    8 ar
    13    7   12 1
    14    9   13 1
    15    9   14 1
    16    9   15 1
    17   10   16 1
    18   10   17 1
    19   10   18 1
