@<TRIPOS>MOLECULE
DB11691
   76    83     0     0     0
SMALL
USER_CHARGES

@<TRIPOS>ATOM
      1 O1          0.9928    2.3042    2.3406 O.3       1 <0>        -0.4762
      2 O2          2.4801   -1.6676    0.7207 O.3       1 <0>        -0.3857
      3 O3         -1.1929    0.3974    2.4744 O.3       1 <0>        -0.5068
      4 O4          0.5759    5.0781    1.5450 O.3       1 <0>        -0.5033
      5 O5         -2.1221   -0.4282   -1.0145 O.2       1 <0>        -0.2704
      6 O6         -4.6579   -0.7484    1.7593 O.3       1 <0>        -0.3354
      7 N1          4.7187   -0.3234   -0.2155 N.3       1 <0>        -0.2960
      8 N2         -2.0376   -1.8192    0.8550 N.am      1 <0>        -0.2979
      9 N3         -5.3571   -1.2805   -0.3010 N.2       1 <0>        -0.1895
     10 N4         -5.7744    0.0586    1.5064 N.2       1 <0>        -0.0560
     11 C1          2.3654    0.7153    1.1241 C.3       1 <0>         0.0751
     12 C2          2.2713   -0.4006    0.0752 C.3       1 <0>         0.0995
     13 C3          3.4362   -0.1441   -0.9437 C.3       1 <0>         0.0444
     14 C4          3.7242    0.6497    1.8588 C.3       1 <0>        -0.0238
     15 C5          1.1799    0.8638    2.1004 C.3       1 <0>         0.1693
     16 C6          2.2338    2.0304    0.4399 C.ar      1 <0>         0.0141
     17 C7          0.8757   -0.4818   -0.5851 C.3       1 <0>         0.0120
     18 C8          3.2986    1.2444   -1.6691 C.3       1 <0>        -0.0089
     19 C9          4.9179    0.6194    0.8891 C.3       1 <0>         0.0003
     20 C10         2.7021    2.3414   -0.8236 C.ar      1 <0>        -0.0382
     21 C11         5.8847   -0.3768   -1.0908 C.3       1 <0>         0.0021
     22 C12         6.9709   -1.2144   -0.4981 C.3       1 <0>        -0.0282
     23 C13         1.4959    2.9031    1.2111 C.ar      1 <0>         0.1669
     24 C14        -0.1264    0.2771    1.6028 C.2       1 <0>         0.1435
     25 C15        -0.2523   -0.3179    0.4030 C.2       1 <0>         0.0579
     26 C16         7.0254   -2.6791   -0.8203 C.3       1 <0>        -0.0488
     27 C17         8.0551   -1.7468   -1.3884 C.3       1 <0>        -0.0488
     28 C18         2.4894    3.6463   -1.2679 C.ar      1 <0>        -0.0546
     29 C19         1.2842    4.1981    0.7962 C.ar      1 <0>         0.1588
     30 C20         1.8009    4.5711   -0.4534 C.ar      1 <0>        -0.0162
     31 C21        -1.5618   -0.8476   -0.0052 C.2       1 <0>         0.2442
     32 C22        -3.3042   -2.4904    0.6674 C.3       1 <0>         0.1078
     33 C23        -3.4723   -3.4929    1.8242 C.3       1 <0>        -0.0352
     34 C24        -3.2283   -3.2584   -0.6651 C.3       1 <0>        -0.0352
     35 C25        -4.4807   -1.5057    0.6451 C.2       1 <0>         0.2506
     36 C26        -6.1299   -0.3135    0.2731 C.2       1 <0>         0.2021
     37 C27        -7.2502    0.2617   -0.4136 C.ar      1 <0>         0.0224
     38 C28        -7.5724   -0.1661   -1.7014 C.ar      1 <0>        -0.0509
     39 C29        -8.0171    1.2487    0.2058 C.ar      1 <0>        -0.0509
     40 C30        -8.6615    0.3929   -2.3702 C.ar      1 <0>        -0.0611
     41 C31        -9.1061    1.8077   -0.4628 C.ar      1 <0>        -0.0611
     42 C32        -9.4284    1.3799   -1.7508 C.ar      1 <0>        -0.0617
     43 H1          3.3911   -0.9351   -1.7049 H         1 <0>         0.0494
     44 H2          3.7538   -0.2526    2.4839 H         1 <0>         0.0288
     45 H3          3.8484    1.4996    2.5428 H         1 <0>         0.0288
     46 H4          1.4168    0.3994    3.0662 H         1 <0>         0.0826
     47 H5          0.7477    0.2797   -1.3620 H         1 <0>         0.0344
     48 H6          0.7727   -1.4560   -1.0813 H         1 <0>         0.0344
     49 H7          2.6374    1.1018   -2.5339 H         1 <0>         0.0329
     50 H8          4.2625    1.5755   -2.0706 H         1 <0>         0.0329
     51 H9          5.7989    0.3460    1.4801 H         1 <0>         0.0427
     52 H10         5.1091    1.6316    0.5110 H         1 <0>         0.0427
     53 H11         5.6068   -0.8030   -2.0638 H         1 <0>         0.0429
     54 H12         6.2731    0.6272   -1.3036 H         1 <0>         0.0429
     55 H13         7.2909   -0.8911    0.4844 H         1 <0>         0.0313
     56 H14         2.5543   -2.3457    0.0276 H         1 <0>         0.2103
     57 H15         9.0592   -1.8000   -0.9854 H         1 <0>         0.0268
     58 H16         8.0103   -1.5321   -2.4490 H         1 <0>         0.0268
     59 H17         6.2911   -3.0934   -1.5000 H         1 <0>         0.0268
     60 H18         7.3361   -3.3555   -0.0333 H         1 <0>         0.0268
     61 H19         2.8315    3.9545   -2.2522 H         1 <0>         0.0622
     62 H20         1.6472    5.5808   -0.8281 H         1 <0>         0.0655
     63 H21        -0.8798    0.8771    3.2606 H         1 <0>         0.2918
     64 H22        -1.4658   -2.0936    1.6497 H         1 <0>         0.1500
     65 H23         0.5343    5.9285    1.0745 H         1 <0>         0.2923
     66 H24        -4.1176   -3.8855   -0.8031 H         1 <0>         0.0255
     67 H25        -3.1730   -2.5990   -1.5375 H         1 <0>         0.0255
     68 H26        -2.3520   -3.9172   -0.6948 H         1 <0>         0.0255
     69 H27        -4.4177   -4.0412    1.7387 H         1 <0>         0.0255
     70 H28        -3.4722   -2.9865    2.7969 H         1 <0>         0.0255
     71 H29        -2.6571   -4.2260    1.8386 H         1 <0>         0.0255
     72 H30        -6.9945   -0.9332   -2.2110 H         1 <0>         0.0625
     73 H31        -7.7964    1.6073    1.2080 H         1 <0>         0.0625
     74 H32        -8.9128    0.0601   -3.3730 H         1 <0>         0.0618
     75 H33        -9.7035    2.5762    0.0190 H         1 <0>         0.0618
     76 H34       -10.2763    1.8152   -2.2714 H         1 <0>         0.0618
@<TRIPOS>BOND
     1    1   15 1
     2    1   23 1
     3    2   12 1
     4    2   56 1
     5    3   24 1
     6    3   63 1
     7    4   29 1
     8    4   65 1
     9    5   31 2
    10    6   10 1
    11    6   35 1
    12    7   13 1
    13    7   19 1
    14    7   21 1
    15    8   31 am
    16    8   32 1
    17    8   64 1
    18    9   35 2
    19    9   36 1
    20   10   36 2
    21   11   12 1
    22   11   14 1
    23   11   15 1
    24   11   16 1
    25   12   13 1
    26   12   17 1
    27   13   18 1
    28   13   43 1
    29   14   19 1
    30   14   44 1
    31   14   45 1
    32   15   24 1
    33   15   46 1
    34   16   20 ar
    35   16   23 ar
    36   17   25 1
    37   17   47 1
    38   17   48 1
    39   18   20 1
    40   18   49 1
    41   18   50 1
    42   19   51 1
    43   19   52 1
    44   20   28 ar
    45   21   22 1
    46   21   53 1
    47   21   54 1
    48   22   26 1
    49   22   27 1
    50   22   55 1
    51   23   29 ar
    52   24   25 2
    53   25   31 1
    54   26   27 1
    55   26   59 1
    56   26   60 1
    57   27   57 1
    58   27   58 1
    59   28   30 ar
    60   28   61 1
    61   29   30 ar
    62   30   62 1
    63   32   33 1
    64   32   34 1
    65   32   35 1
    66   33   69 1
    67   33   70 1
    68   33   71 1
    69   34   66 1
    70   34   67 1
    71   34   68 1
    72   36   37 1
    73   37   38 ar
    74   37   39 ar
    75   38   40 ar
    76   38   72 1
    77   39   41 ar
    78   39   73 1
    79   40   42 ar
    80   40   74 1
    81   41   42 ar
    82   41   75 1
    83   42   76 1
