@<TRIPOS>MOLECULE
DB11584
   41    43     0     0     0
SMALL
USER_CHARGES

@<TRIPOS>ATOM
      1 O1         -0.0808    0.0151   -1.9671 O.3       1 <0>        -0.3777
      2 N1          1.8572    1.1188   -0.3769 N.3       1 <0>        -0.3101
      3 C1          1.0621   -0.0248    0.0881 C.3       1 <0>         0.0449
      4 C2         -0.3266    0.0422   -0.5447 C.3       1 <0>         0.1310
      5 C3          1.7528   -1.3484   -0.2681 C.3       1 <0>        -0.0342
      6 C4          3.1725   -1.3985    0.2898 C.3       1 <0>        -0.0504
      7 C5          3.9573   -0.1611   -0.1321 C.3       1 <0>        -0.0404
      8 C6          3.1976    1.1186    0.2096 C.3       1 <0>        -0.0037
      9 C7         -1.0013    1.3710   -0.1616 C.ar      1 <0>        -0.0102
     10 C8         -1.2518   -1.1464   -0.2331 C.ar      1 <0>        -0.0102
     11 C9         -1.3638    1.5623    1.1477 C.ar      1 <0>        -0.0555
     12 C10        -2.1178   -1.5706   -1.2096 C.ar      1 <0>        -0.0555
     13 C11        -1.2086    2.3031   -1.1467 C.ar      1 <0>        -0.0555
     14 C12        -1.1686   -1.7285    1.0068 C.ar      1 <0>        -0.0555
     15 C13        -1.9752    2.7669    1.4952 C.ar      1 <0>        -0.0614
     16 C14        -2.9566   -2.6485   -0.9272 C.ar      1 <0>        -0.0614
     17 C15        -1.8198    3.5076   -0.7990 C.ar      1 <0>        -0.0614
     18 C16        -2.0076   -2.8067    1.2890 C.ar      1 <0>        -0.0614
     19 C17        -2.2032    3.7395    0.5220 C.ar      1 <0>        -0.0617
     20 C18        -2.9015   -3.2667    0.3219 C.ar      1 <0>        -0.0617
     21 H1          0.9980    0.0448    1.1820 H         1 <0>         0.0495
     22 H2          1.8266   -1.4811   -1.3542 H         1 <0>         0.0281
     23 H3          1.2185   -2.2209    0.1168 H         1 <0>         0.0281
     24 H4          3.6830   -2.3029   -0.0593 H         1 <0>         0.0266
     25 H5          3.1337   -1.4527    1.3847 H         1 <0>         0.0266
     26 H6          1.4023    1.9949   -0.1250 H         1 <0>         0.1223
     27 H7          4.9348   -0.1561    0.3630 H         1 <0>         0.0277
     28 H8          4.1457   -0.1994   -1.2124 H         1 <0>         0.0277
     29 H9          3.1338    1.2440    1.2975 H         1 <0>         0.0424
     30 H10         3.7535    1.9789   -0.1789 H         1 <0>         0.0424
     31 H11         0.0770   -0.8983   -2.2583 H         1 <0>         0.2111
     32 H12        -1.1834    0.8357    1.9302 H         1 <0>         0.0621
     33 H13        -2.2007   -1.0946   -2.1810 H         1 <0>         0.0621
     34 H14        -0.9230    2.1604   -2.1828 H         1 <0>         0.0621
     35 H15        -0.4928   -1.3962    1.7857 H         1 <0>         0.0621
     36 H16        -2.2696    2.9497    2.5246 H         1 <0>         0.0618
     37 H17        -3.6569   -3.0032   -1.6777 H         1 <0>         0.0618
     38 H18        -1.9969    4.2658   -1.5563 H         1 <0>         0.0618
     39 H19        -1.9664   -3.2871    2.2621 H         1 <0>         0.0618
     40 H20        -2.6778    4.6780    0.7929 H         1 <0>         0.0618
     41 H21        -3.5559   -4.1050    0.5423 H         1 <0>         0.0618
@<TRIPOS>BOND
     1    1    4 1
     2    1   31 1
     3    2    3 1
     4    2    8 1
     5    2   26 1
     6    3    4 1
     7    3    5 1
     8    3   21 1
     9    4    9 1
    10    4   10 1
    11    5    6 1
    12    5   22 1
    13    5   23 1
    14    6    7 1
    15    6   24 1
    16    6   25 1
    17    7    8 1
    18    7   27 1
    19    7   28 1
    20    8   29 1
    21    8   30 1
    22    9   11 ar
    23    9   13 ar
    24   10   12 ar
    25   10   14 ar
    26   11   15 ar
    27   11   32 1
    28   12   16 ar
    29   12   33 1
    30   13   17 ar
    31   13   34 1
    32   14   18 ar
    33   14   35 1
    34   15   19 ar
    35   15   36 1
    36   16   20 ar
    37   16   37 1
    38   17   19 ar
    39   17   38 1
    40   18   20 ar
    41   18   39 1
    42   19   40 1
    43   20   41 1
