@<TRIPOS>MOLECULE
DB11921
   63    67     0     0     0
SMALL
USER_CHARGES

@<TRIPOS>ATOM
      1 O1         -2.0718    3.3702   -0.0573 O.3       1 <0>        -0.4737
      2 O2          0.8539   -2.3996    0.8910 O.3       1 <0>        -0.3914
      3 O3         -4.1351    1.0691    1.5648 O.2       1 <0>        -0.2910
      4 O4         -5.2127   -0.9679    0.0516 O.3       1 <0>        -0.4570
      5 O5          6.5539   -0.7217   -2.8260 O.2       1 <0>        -0.2879
      6 O6         -5.0039   -3.0762   -0.8698 O.2       1 <0>        -0.2512
      7 N1         -2.2893    1.3577   -1.1271 N.2       1 <0>        -0.2360
      8 C1         -0.8708    0.1692    0.5926 C.3       1 <0>         0.0093
      9 C2          0.2585    1.2173    0.4620 C.3       1 <0>        -0.0262
     10 C3          1.6531    0.6575    0.7775 C.3       1 <0>        -0.0310
     11 C4         -2.1103    1.0568    0.3053 C.3       1 <0>         0.1680
     12 C5          1.9655   -0.5073   -0.2282 C.3       1 <0>         0.0007
     13 C6         -0.2691    2.4059    1.2680 C.3       1 <0>        -0.0093
     14 C7         -0.5863   -0.9561   -0.4208 C.3       1 <0>        -0.0181
     15 C8         -1.7796    2.4123    0.9546 C.3       1 <0>         0.1343
     16 C9          0.8226   -1.5723   -0.2635 C.3       1 <0>         0.0600
     17 C10         3.4320   -1.0698   -0.0518 C.3       1 <0>         0.0131
     18 C11         2.7122    1.7709    0.6861 C.3       1 <0>        -0.0458
     19 C12        -0.9941   -0.4148    2.0297 C.3       1 <0>        -0.0565
     20 C13         4.1286    1.2380    0.8611 C.3       1 <0>        -0.0302
     21 C14         4.3907    0.1240   -0.1196 C.2       1 <0>        -0.0559
     22 C15        -3.4225    0.4805    0.7532 C.2       1 <0>         0.2019
     23 C16         3.6683   -1.8007    1.2892 C.3       1 <0>        -0.0520
     24 C17         3.7368   -2.0822   -1.1466 C.2       1 <0>        -0.0701
     25 C18        -2.2830    2.6502   -1.1798 C.2       1 <0>         0.1832
     26 C19         5.3873    0.2311   -1.0124 C.2       1 <0>        -0.0149
     27 C20        -3.8089   -0.8538    0.1516 C.3       1 <0>         0.1527
     28 C21         4.7261   -1.9807   -2.0394 C.2       1 <0>        -0.0180
     29 C22        -2.4706    3.4551   -2.4119 C.3       1 <0>         0.0114
     30 C23         5.6318   -0.8178   -2.0234 C.2       1 <0>         0.1787
     31 C24        -5.6882   -2.1391   -0.4812 C.2       1 <0>         0.3043
     32 C25        -7.1862   -2.1189   -0.5248 C.3       1 <0>         0.0332
     33 H1          0.3022    1.5556   -0.5861 H         1 <0>         0.0311
     34 H2          1.6758    0.2738    1.8020 H         1 <0>         0.0308
     35 H3          1.9397   -0.0448   -1.2301 H         1 <0>         0.0340
     36 H4         -0.1013    2.2445    2.3385 H         1 <0>         0.0305
     37 H5          0.2173    3.3428    0.9786 H         1 <0>         0.0305
     38 H6         -0.6642   -0.5696   -1.4443 H         1 <0>         0.0296
     39 H7         -1.3267   -1.7559   -0.3235 H         1 <0>         0.0296
     40 H8         -2.3532    2.6631    1.8517 H         1 <0>         0.0762
     41 H9          0.9804   -2.2334   -1.1229 H         1 <0>         0.0596
     42 H10         2.5256    2.5293    1.4555 H         1 <0>         0.0271
     43 H11         2.6337    2.2799   -0.2838 H         1 <0>         0.0271
     44 H12        -1.3918    0.3157    2.7426 H         1 <0>         0.0236
     45 H13        -1.6605   -1.2820    2.0555 H         1 <0>         0.0236
     46 H14        -0.0393   -0.7478    2.4407 H         1 <0>         0.0236
     47 H15         4.2732    0.8754    1.8852 H         1 <0>         0.0310
     48 H16         4.8371    2.0645    0.7272 H         1 <0>         0.0310
     49 H17         3.2788   -1.2438    2.1467 H         1 <0>         0.0241
     50 H18         3.2088   -2.7949    1.3092 H         1 <0>         0.0241
     51 H19         4.7401   -1.9583    1.4692 H         1 <0>         0.0241
     52 H20         3.1182   -2.9759   -1.1921 H         1 <0>         0.0582
     53 H21         0.1607   -3.0741    0.7923 H         1 <0>         0.2098
     54 H22         6.0411    1.0964   -1.0382 H         1 <0>         0.0655
     55 H23        -3.4234   -1.6535    0.7893 H         1 <0>         0.0779
     56 H24        -3.3934   -0.9395   -0.8563 H         1 <0>         0.0779
     57 H25         4.8940   -2.7493   -2.7849 H         1 <0>         0.0653
     58 H26        -2.7203    2.8033   -3.2534 H         1 <0>         0.0324
     59 H27        -1.5467    3.9930   -2.6396 H         1 <0>         0.0324
     60 H28        -3.2843    4.1698   -2.2641 H         1 <0>         0.0324
     61 H29        -7.5268   -1.2938   -1.1551 H         1 <0>         0.0342
     62 H30        -7.5843   -2.0199    0.4881 H         1 <0>         0.0342
     63 H31        -7.5496   -3.0578   -0.9524 H         1 <0>         0.0342
@<TRIPOS>BOND
     1    1   15 1
     2    1   25 1
     3    2   16 1
     4    2   53 1
     5    3   22 2
     6    4   27 1
     7    4   31 1
     8    5   30 2
     9    6   31 2
    10    7   11 1
    11    7   25 2
    12    8    9 1
    13    8   11 1
    14    8   14 1
    15    8   19 1
    16    9   10 1
    17    9   13 1
    18    9   33 1
    19   10   12 1
    20   10   18 1
    21   10   34 1
    22   11   15 1
    23   11   22 1
    24   12   16 1
    25   12   17 1
    26   12   35 1
    27   13   15 1
    28   13   36 1
    29   13   37 1
    30   14   16 1
    31   14   38 1
    32   14   39 1
    33   15   40 1
    34   16   41 1
    35   17   21 1
    36   17   23 1
    37   17   24 1
    38   18   20 1
    39   18   42 1
    40   18   43 1
    41   19   44 1
    42   19   45 1
    43   19   46 1
    44   20   21 1
    45   20   47 1
    46   20   48 1
    47   21   26 2
    48   22   27 1
    49   23   49 1
    50   23   50 1
    51   23   51 1
    52   24   28 2
    53   24   52 1
    54   25   29 1
    55   26   30 1
    56   26   54 1
    57   27   55 1
    58   27   56 1
    59   28   30 1
    60   28   57 1
    61   29   58 1
    62   29   59 1
    63   29   60 1
    64   31   32 1
    65   32   61 1
    66   32   62 1
    67   32   63 1
