@<TRIPOS>MOLECULE
DB11117
   33    32     0     0     0
SMALL
USER_CHARGES

@<TRIPOS>ATOM
      1 O1         -6.9540   -0.6424    0.1289 O.3       1 <0>        -0.4806
      2 O2         -5.9604    1.3949   -0.0371 O.2       1 <0>        -0.2510
      3 C1         -0.8048    0.4865   -0.0168 C.3       1 <0>        -0.0530
      4 C2          0.5174   -0.2833   -0.0737 C.3       1 <0>        -0.0530
      5 C3         -2.0368   -0.4244   -0.0490 C.3       1 <0>        -0.0526
      6 C4          1.7497    0.6270   -0.0536 C.3       1 <0>        -0.0528
      7 C5          3.0738   -0.1428   -0.0352 C.3       1 <0>        -0.0496
      8 C6         -3.3608    0.3461   -0.0184 C.3       1 <0>        -0.0430
      9 C7          4.2679    0.8150    0.0566 C.3       1 <0>        -0.0350
     10 C8         -4.5724   -0.5816    0.0159 C.3       1 <0>         0.0448
     11 C9          5.6352    0.1881    0.0600 C.2       1 <0>        -0.0911
     12 C10        -5.8767    0.1755    0.0292 C.2       1 <0>         0.3047
     13 C11         5.9332   -1.1161    0.0424 C.2       1 <0>        -0.1026
     14 H1         -0.8301    1.0942    0.8961 H         1 <0>         0.0265
     15 H2         -0.8512    1.1831   -0.8629 H         1 <0>         0.0265
     16 H3          0.5654   -0.9731    0.7780 H         1 <0>         0.0265
     17 H4          0.5408   -0.8985   -0.9814 H         1 <0>         0.0265
     18 H5         -2.0036   -1.0457   -0.9526 H         1 <0>         0.0265
     19 H6         -1.9966   -1.1082    0.8079 H         1 <0>         0.0265
     20 H7          1.7239    1.2869   -0.9295 H         1 <0>         0.0265
     21 H8          1.6980    1.2734    0.8316 H         1 <0>         0.0265
     22 H9         -3.3793    1.0030    0.8604 H         1 <0>         0.0270
     23 H10        -3.4192    0.9999   -0.8976 H         1 <0>         0.0270
     24 H11         3.0802   -0.8277    0.8215 H         1 <0>         0.0268
     25 H12         3.1477   -0.7525   -0.9440 H         1 <0>         0.0268
     26 H13         4.1743    1.4187    0.9680 H         1 <0>         0.0307
     27 H14         4.2263    1.5137   -0.7884 H         1 <0>         0.0307
     28 H15        -4.5679   -1.2311   -0.8664 H         1 <0>         0.0377
     29 H16        -4.5326   -1.2054    0.9158 H         1 <0>         0.0377
     30 H17         6.4668    0.8899    0.0840 H         1 <0>         0.0566
     31 H18         6.9695   -1.4374    0.0498 H         1 <0>         0.0532
     32 H19         5.1720   -1.8864    0.0212 H         1 <0>         0.0532
     33 H20        -7.7960   -0.1391    0.1393 H         1 <0>         0.2951
@<TRIPOS>BOND
     1    1   12 1
     2    1   33 1
     3    2   12 2
     4    3    4 1
     5    3    5 1
     6    3   14 1
     7    3   15 1
     8    4    6 1
     9    4   16 1
    10    4   17 1
    11    5    8 1
    12    5   18 1
    13    5   19 1
    14    6    7 1
    15    6   20 1
    16    6   21 1
    17    7    9 1
    18    7   24 1
    19    7   25 1
    20    8   10 1
    21    8   22 1
    22    8   23 1
    23    9   11 1
    24    9   26 1
    25    9   27 1
    26   10   12 1
    27   10   28 1
    28   10   29 1
    29   11   13 2
    30   11   30 1
    31   13   31 1
    32   13   32 1
