@<TRIPOS>MOLECULE
DB11132
    3     2     0     0     0
SMALL
NO_CHARGES

@<TRIPOS>ATOM
      1 Si1        -0.0000   -0.5548    0.0000 Si        1 <0>         0.0000
      2 O1          1.2172    0.2774    0.0000 O.2       1 <0>         0.0000
      3 O2         -1.2171    0.2774    0.0000 O.2       1 <0>         0.0000
@<TRIPOS>BOND
     1    1    2 2
     2    1    3 2
