@<TRIPOS>MOLECULE
DB12293
   38    40     0     0     0
SMALL
USER_CHARGES

@<TRIPOS>ATOM
      1 O1          0.0140    1.3797   -0.9425 O.3       1 <0>        -0.3661
      2 N1          2.8074    0.5795   -0.0355 N.3       1 <0>        -0.2990
      3 C1         -0.7794    0.1932   -0.9550 C.3       1 <0>         0.1090
      4 C2         -0.1170   -1.0476   -0.3568 C.ar      1 <0>        -0.0101
      5 C3          1.7606    0.1989    0.9297 C.3       1 <0>         0.0242
      6 C4          1.0111   -1.0463    0.4929 C.ar      1 <0>        -0.0274
      7 C5          2.3924    1.6652   -0.9437 C.3       1 <0>         0.0224
      8 C6          1.1638    1.3224   -1.7822 C.3       1 <0>         0.0616
      9 C7         -2.0971    0.5293   -0.2755 C.ar      1 <0>        -0.0145
     10 C8         -0.7003   -2.2885   -0.7007 C.ar      1 <0>        -0.0555
     11 C9          1.5202   -2.2826    0.9482 C.ar      1 <0>        -0.0570
     12 C10         4.0367    0.9694    0.6611 C.3       1 <0>        -0.0123
     13 C11        -0.1877   -3.4957   -0.2296 C.ar      1 <0>        -0.0614
     14 C12         0.9263   -3.4927    0.5954 C.ar      1 <0>        -0.0614
     15 C13        -3.2607   -0.1364   -0.6525 C.ar      1 <0>        -0.0558
     16 C14        -2.1347    1.5019    0.7205 C.ar      1 <0>        -0.0558
     17 C15        -4.4699    0.1724   -0.0295 C.ar      1 <0>        -0.0614
     18 C16        -3.3438    1.8107    1.3437 C.ar      1 <0>        -0.0614
     19 C17        -4.5114    1.1459    0.9686 C.ar      1 <0>        -0.0617
     20 H1         -1.0002   -0.0108   -2.0133 H         1 <0>         0.0697
     21 H2          1.0770    1.0215    1.1696 H         1 <0>         0.0476
     22 H3          2.2115   -0.0322    1.9064 H         1 <0>         0.0476
     23 H4          3.2152    1.8711   -1.6394 H         1 <0>         0.0449
     24 H5          2.2025    2.5825   -0.3709 H         1 <0>         0.0449
     25 H6          1.0326    2.0857   -2.5567 H         1 <0>         0.0573
     26 H7          1.2816    0.3580   -2.2911 H         1 <0>         0.0573
     27 H8         -1.5528   -2.3333   -1.3732 H         1 <0>         0.0621
     28 H9          2.3987   -2.3074    1.5904 H         1 <0>         0.0621
     29 H10         4.4140    0.1399    1.2699 H         1 <0>         0.0391
     30 H11         3.8829    1.8374    1.3123 H         1 <0>         0.0391
     31 H12         4.8295    1.2102   -0.0562 H         1 <0>         0.0391
     32 H13        -0.6528   -4.4340   -0.5167 H         1 <0>         0.0618
     33 H14         1.3378   -4.4283    0.9618 H         1 <0>         0.0618
     34 H15        -3.2574   -0.8793   -1.4440 H         1 <0>         0.0621
     35 H16        -1.2411    2.0277    1.0435 H         1 <0>         0.0621
     36 H17        -5.3802   -0.3410   -0.3252 H         1 <0>         0.0618
     37 H18        -3.3762    2.5666    2.1229 H         1 <0>         0.0618
     38 H19        -5.4530    1.3869    1.4533 H         1 <0>         0.0618
@<TRIPOS>BOND
     1    1    3 1
     2    1    8 1
     3    2    5 1
     4    2    7 1
     5    2   12 1
     6    3    4 1
     7    3    9 1
     8    3   20 1
     9    4    6 ar
    10    4   10 ar
    11    5    6 1
    12    5   21 1
    13    5   22 1
    14    6   11 ar
    15    7    8 1
    16    7   23 1
    17    7   24 1
    18    8   25 1
    19    8   26 1
    20    9   15 ar
    21    9   16 ar
    22   10   13 ar
    23   10   27 1
    24   11   14 ar
    25   11   28 1
    26   12   29 1
    27   12   30 1
    28   12   31 1
    29   13   14 ar
    30   13   32 1
    31   14   33 1
    32   15   17 ar
    33   15   34 1
    34   16   18 ar
    35   16   35 1
    36   17   19 ar
    37   17   36 1
    38   18   19 ar
    39   18   37 1
    40   19   38 1
