@<TRIPOS>MOLECULE
DB12612
   54    57     0     0     0
SMALL
USER_CHARGES

@<TRIPOS>ATOM
      1 O1          1.3618    2.8898   -0.7618 O.3       1 <0>        -0.3325
      2 O2         -7.9658   -3.5682   -0.5338 O.3       1 <0>        -0.3938
      3 O3          6.3920   -0.5695    0.7527 O.3       1 <0>        -0.4881
      4 N1         -5.9074   -0.5345   -0.2011 N.3       1 <0>        -0.3071
      5 N2          0.1768    1.3388    0.3367 N.2       1 <0>        -0.1870
      6 N3          0.0225    3.2915   -0.8452 N.2       1 <0>        -0.0557
      7 N4          4.1777   -2.8454    2.4261 N.1       1 <0>        -0.1907
      8 C1         -4.6533   -0.2581    0.4815 C.3       1 <0>         0.0335
      9 C2         -3.4936   -1.0624   -0.1417 C.3       1 <0>        -0.0294
     10 C3         -2.2151   -0.2587    0.1386 C.3       1 <0>        -0.0250
     11 C4         -4.1412    1.1452    0.3171 C.ar      1 <0>        -0.0266
     12 C5         -2.7516    1.1390    0.1280 C.ar      1 <0>        -0.0319
     13 C6         -2.0381    2.3196    0.0047 C.ar      1 <0>         0.0259
     14 C7         -4.8388    2.3410    0.3943 C.ar      1 <0>        -0.0568
     15 C8         -6.3213   -1.9167    0.0043 C.3       1 <0>         0.0196
     16 C9         -2.7387    3.5257    0.0629 C.ar      1 <0>        -0.0507
     17 C10        -4.1286    3.5364    0.2570 C.ar      1 <0>        -0.0608
     18 C11        -0.6137    2.3268   -0.1740 C.2       1 <0>         0.2026
     19 C12        -7.6096   -2.2088   -0.7479 C.3       1 <0>         0.0567
     20 C13         1.3638    1.7321   -0.0506 C.2       1 <0>         0.2588
     21 C14         2.6513    1.1348    0.1603 C.ar      1 <0>         0.0409
     22 C15         2.7603   -0.0548    0.8802 C.ar      1 <0>        -0.0285
     23 C16         3.7946    1.7452   -0.3555 C.ar      1 <0>        -0.0459
     24 C17         5.1557   -0.0242    0.5683 C.ar      1 <0>         0.1382
     25 C18         4.0125   -0.6345    1.0842 C.ar      1 <0>         0.0940
     26 C19         5.0468    1.1657   -0.1515 C.ar      1 <0>        -0.0179
     27 C20         7.1238   -0.9233   -0.4185 C.3       1 <0>         0.0947
     28 C21         8.4137   -0.1185   -0.4651 C.3       1 <0>        -0.0281
     29 C22         7.3901   -2.4208   -0.4094 C.3       1 <0>        -0.0281
     30 C23         4.1038   -1.8553    1.8251 C.1       1 <0>         0.1028
     31 H1         -4.7305   -0.4660    1.5570 H         1 <0>         0.0510
     32 H2         -3.4184   -2.0803    0.2555 H         1 <0>         0.0287
     33 H3         -3.6207   -1.1456   -1.2316 H         1 <0>         0.0287
     34 H4         -1.8044   -0.5046    1.1233 H         1 <0>         0.0314
     35 H5         -1.4744   -0.4459   -0.6437 H         1 <0>         0.0314
     36 H6         -6.6358    0.0860    0.1516 H         1 <0>         0.1226
     37 H7         -5.9102    2.3603    0.5627 H         1 <0>         0.0621
     38 H8         -6.4706   -2.1252    1.0714 H         1 <0>         0.0447
     39 H9         -5.5645   -2.6264   -0.3491 H         1 <0>         0.0447
     40 H10        -2.2286    4.4827   -0.0244 H         1 <0>         0.0625
     41 H11        -4.6557    4.4851    0.3110 H         1 <0>         0.0618
     42 H12        -8.4284   -1.5759   -0.3898 H         1 <0>         0.0570
     43 H13        -7.4824   -2.0501   -1.8241 H         1 <0>         0.0570
     44 H14        -8.7899   -3.7278   -1.0245 H         1 <0>         0.2095
     45 H15         1.8714   -0.5361    1.2851 H         1 <0>         0.0639
     46 H16         3.7511    2.6735   -0.9192 H         1 <0>         0.0626
     47 H17         5.9254    1.6629   -0.5517 H         1 <0>         0.0655
     48 H18         6.5500   -0.7034   -1.3292 H         1 <0>         0.0727
     49 H19         9.0231   -0.3088    0.4253 H         1 <0>         0.0265
     50 H20         7.9470   -2.7133    0.4876 H         1 <0>         0.0265
     51 H21         9.0051   -0.3668   -1.3517 H         1 <0>         0.0265
     52 H22         8.2059    0.9561   -0.4771 H         1 <0>         0.0265
     53 H23         7.9582   -2.7310   -1.2916 H         1 <0>         0.0265
     54 H24         6.4469   -2.9772   -0.3891 H         1 <0>         0.0265
@<TRIPOS>BOND
     1    1    6 1
     2    1   20 1
     3    2   19 1
     4    2   44 1
     5    3   24 1
     6    3   27 1
     7    4    8 1
     8    4   15 1
     9    4   36 1
    10    5   18 1
    11    5   20 2
    12    6   18 2
    13    7   30 3
    14    8    9 1
    15    8   11 1
    16    8   31 1
    17    9   10 1
    18    9   32 1
    19    9   33 1
    20   10   12 1
    21   10   34 1
    22   10   35 1
    23   11   12 ar
    24   11   14 ar
    25   12   13 ar
    26   13   16 ar
    27   13   18 1
    28   14   17 ar
    29   14   37 1
    30   15   19 1
    31   15   38 1
    32   15   39 1
    33   16   17 ar
    34   16   40 1
    35   17   41 1
    36   19   42 1
    37   19   43 1
    38   20   21 1
    39   21   22 ar
    40   21   23 ar
    41   22   25 ar
    42   22   45 1
    43   23   26 ar
    44   23   46 1
    45   24   25 ar
    46   24   26 ar
    47   25   30 1
    48   26   47 1
    49   27   28 1
    50   27   29 1
    51   27   48 1
    52   28   49 1
    53   28   51 1
    54   28   52 1
    55   29   50 1
    56   29   53 1
    57   29   54 1
