@<TRIPOS>MOLECULE
DB12945
   24    25     0     0     0
SMALL
USER_CHARGES

@<TRIPOS>ATOM
      1 N1         -0.6796   -2.0009    0.0003 N.ar      1 <0>        -0.1307
      2 N2          0.6797   -2.0010   -0.0011 N.ar      1 <0>        -0.1307
      3 N3         -2.7553   -0.8808    0.0019 N.pl3     1 <0>        -0.2656
      4 N4          2.7552   -0.8809   -0.0018 N.pl3     1 <0>        -0.2656
      5 N5         -3.4282   -2.0324   -0.3222 N.3       1 <0>        -0.2553
      6 N6          3.4281   -2.0325    0.3224 N.3       1 <0>        -0.2553
      7 C1         -0.7015    0.4115    0.0001 C.ar      1 <0>         0.0282
      8 C2          0.7014    0.4113   -0.0006 C.ar      1 <0>         0.0282
      9 C3         -1.3412   -0.8232    0.0009 C.ar      1 <0>         0.1624
     10 C4          1.3411   -0.8233   -0.0012 C.ar      1 <0>         0.1624
     11 C5         -1.3964    1.6325    0.0006 C.ar      1 <0>        -0.0505
     12 C6          1.3963    1.6325   -0.0008 C.ar      1 <0>        -0.0505
     13 C7         -0.6968    2.8400    0.0004 C.ar      1 <0>        -0.0611
     14 C8          0.6969    2.8399   -0.0003 C.ar      1 <0>        -0.0611
     15 H1         -2.4818    1.6813   -0.0065 H         1 <0>         0.0625
     16 H2          2.4817    1.6812    0.0065 H         1 <0>         0.0625
     17 H3         -1.2390    3.7812   -0.0008 H         1 <0>         0.0618
     18 H4          1.2391    3.7811    0.0010 H         1 <0>         0.0618
     19 H5         -3.2456   -0.2063    0.5781 H         1 <0>         0.1675
     20 H6          3.2459   -0.2063   -0.5778 H         1 <0>         0.1675
     21 H7         -4.3829   -1.7893   -0.5828 H         1 <0>         0.1404
     22 H8         -3.5037   -2.6132    0.5120 H         1 <0>         0.1404
     23 H9          4.3827   -1.7893    0.5835 H         1 <0>         0.1404
     24 H10         3.5039   -2.6132   -0.5118 H         1 <0>         0.1404
@<TRIPOS>BOND
     1    1    2 ar
     2    1    9 ar
     3    2   10 ar
     4    3    5 1
     5    3    9 1
     6    3   19 1
     7    4    6 1
     8    4   10 1
     9    4   20 1
    10    5   21 1
    11    5   22 1
    12    6   23 1
    13    6   24 1
    14    7    8 ar
    15    7    9 ar
    16    7   11 ar
    17    8   10 ar
    18    8   12 ar
    19   11   13 ar
    20   11   15 1
    21   12   14 ar
    22   12   16 1
    23   13   14 ar
    24   13   17 1
    25   14   18 1
