@<TRIPOS>MOLECULE
DB12941
   47    49     0     0     0
SMALL
USER_CHARGES

@<TRIPOS>ATOM
      1 Cl1        -3.1392   -2.0832    1.1605 Cl        1 <0>        -0.0822
      2 O1          1.1453    2.0616   -1.8704 O.2       1 <0>        -0.2685
      3 O2         -4.4287    3.2978   -1.3465 O.3       1 <0>        -0.3860
      4 N1          3.2632   -0.6605    0.0214 N.pl3     1 <0>        -0.2691
      5 N2          1.9112    1.9877    0.3170 N.am      1 <0>        -0.3057
      6 N3          2.0701   -1.0529    0.4996 N.2       1 <0>        -0.1712
      7 N4         -2.0427    2.3596    1.2030 N.pl3     1 <0>        -0.2784
      8 N5         -0.7059    2.2359    1.1429 N.2       1 <0>        -0.1689
      9 N6         -3.9081   -5.7363    0.8128 N.1       1 <0>        -0.1908
     10 C1          3.3170    1.8802   -0.0010 C.3       1 <0>         0.0401
     11 C2          3.9174    0.5859    0.5689 C.3       1 <0>         0.0596
     12 C3          4.0628    3.1004    0.5314 C.3       1 <0>        -0.0449
     13 C4          3.7628   -1.4765   -0.9508 C.2       1 <0>         0.0262
     14 C5          0.9327    2.0704   -0.6607 C.2       1 <0>         0.2644
     15 C6          1.8117   -2.1600   -0.2017 C.2       1 <0>         0.0928
     16 C7         -0.4632    2.2031   -0.1702 C.2       1 <0>         0.1471
     17 C8          2.8319   -2.4721   -1.1202 C.2       1 <0>        -0.0163
     18 C9         -2.6475    2.4055   -0.0186 C.2       1 <0>         0.0649
     19 C10        -4.1056    2.5377   -0.1679 C.3       1 <0>         0.0936
     20 C11        -1.6360    2.3052   -0.9423 C.2       1 <0>        -0.0063
     21 C12         0.5963   -2.8995    0.0181 C.ar      1 <0>         0.0035
     22 C13        -4.8357    1.1853   -0.2574 C.3       1 <0>        -0.0333
     23 C14        -0.5587   -2.2371    0.4338 C.ar      1 <0>        -0.0329
     24 C15         0.5737   -4.2791   -0.1866 C.ar      1 <0>        -0.0512
     25 C16        -1.7364   -2.9542    0.6450 C.ar      1 <0>         0.0589
     26 C17        -0.6039   -4.9963    0.0247 C.ar      1 <0>        -0.0423
     27 C18        -1.7589   -4.3338    0.4403 C.ar      1 <0>         0.0701
     28 C19        -2.9462   -5.1085    0.6461 C.1       1 <0>         0.1006
     29 H1          3.4335    1.8614   -1.0913 H         1 <0>         0.0514
     30 H2          3.7959    0.5158    1.6565 H         1 <0>         0.0527
     31 H3          4.9817    0.4930    0.3253 H         1 <0>         0.0527
     32 H4          1.6396    2.0092    1.2961 H         1 <0>         0.1494
     33 H5          5.1259    3.0522    0.2740 H         1 <0>         0.0248
     34 H6          3.6521    4.0225    0.1059 H         1 <0>         0.0248
     35 H7          3.9777    3.1732    1.6214 H         1 <0>         0.0248
     36 H8          4.7122   -1.2849   -1.4312 H         1 <0>         0.0826
     37 H9          2.8973   -3.2937   -1.8191 H         1 <0>         0.0654
     38 H10        -4.5130    3.0997    0.6813 H         1 <0>         0.0656
     39 H11        -1.7358    2.3043   -2.0183 H         1 <0>         0.0660
     40 H12        -2.4779    2.4057    2.1161 H         1 <0>         0.1886
     41 H13        -4.4845    0.6079   -1.1201 H         1 <0>         0.0258
     42 H14        -5.9120    1.3378   -0.3911 H         1 <0>         0.0258
     43 H15        -4.6758    0.5920    0.6475 H         1 <0>         0.0258
     44 H16        -0.5570   -1.1598    0.5886 H         1 <0>         0.0639
     45 H17         1.4598   -4.8251   -0.5007 H         1 <0>         0.0624
     46 H18        -0.6030   -6.0718   -0.1374 H         1 <0>         0.0631
     47 H19        -5.3960    3.3942   -1.3746 H         1 <0>         0.2103
@<TRIPOS>BOND
     1    1   25 1
     2    2   14 2
     3    3   19 1
     4    3   47 1
     5    4    6 1
     6    4   11 1
     7    4   13 2
     8    5   10 1
     9    5   14 am
    10    5   32 1
    11    6   15 1
    12    7    8 1
    13    7   18 2
    14    7   40 1
    15    8   16 1
    16    9   28 3
    17   10   11 1
    18   10   12 1
    19   10   29 1
    20   11   30 1
    21   11   31 1
    22   12   33 1
    23   12   34 1
    24   12   35 1
    25   13   17 1
    26   13   36 1
    27   14   16 1
    28   15   17 2
    29   15   21 1
    30   16   20 2
    31   17   37 1
    32   18   19 1
    33   18   20 1
    34   19   22 1
    35   19   38 1
    36   20   39 1
    37   21   23 ar
    38   21   24 ar
    39   22   41 1
    40   22   42 1
    41   22   43 1
    42   23   25 ar
    43   23   44 1
    44   24   26 ar
    45   24   45 1
    46   25   27 ar
    47   26   27 ar
    48   26   46 1
    49   27   28 1
