@<TRIPOS>MOLECULE
DB12867
   52    55     0     0     0
SMALL
USER_CHARGES

@<TRIPOS>ATOM
      1 F1         -6.1721    4.4950    0.1120 F         1 <0>        -0.2055
      2 O1          1.6635    2.0889    1.3508 O.2       1 <0>        -0.2465
      3 O2         -5.2803   -1.6097   -1.0272 O.2       1 <0>        -0.2921
      4 N1         -0.3906   -1.8458    0.4671 N.3       1 <0>        -0.3022
      5 N2          3.0963    0.5462    0.2456 N.am      1 <0>        -0.2891
      6 N3          3.9067    2.5901    0.7946 N.am      1 <0>        -0.3059
      7 C1          2.2239   -0.5900    0.0827 C.3       1 <0>         0.0417
      8 C2          1.0125   -0.2348   -0.7799 C.3       1 <0>        -0.0191
      9 C3          1.7669   -1.1244    1.4398 C.3       1 <0>        -0.0191
     10 C4          0.0325   -1.4058   -0.8696 C.3       1 <0>         0.0008
     11 C5          0.7611   -2.2655    1.2775 C.3       1 <0>         0.0008
     12 C6         -1.3658   -2.9313    0.3634 C.3       1 <0>        -0.0007
     13 C7          4.4302    0.6126   -0.1780 C.ar      1 <0>         0.0700
     14 C8         -2.6086   -2.4555   -0.3915 C.3       1 <0>        -0.0332
     15 C9          2.7399    1.7765    0.8612 C.2       1 <0>         0.3278
     16 C10         4.9217    1.8713    0.1626 C.ar      1 <0>         0.0670
     17 C11        -3.2952   -1.2768    0.3042 C.3       1 <0>         0.0116
     18 C12         5.2185   -0.3201   -0.8192 C.ar      1 <0>        -0.0360
     19 C13         6.2132    2.2603   -0.1167 C.ar      1 <0>        -0.0362
     20 C14         6.5346    0.0519   -1.1137 C.ar      1 <0>        -0.0597
     21 C15        -4.5784   -0.8332   -0.3837 C.2       1 <0>         0.1632
     22 C16         7.0263    1.3278   -0.7664 C.ar      1 <0>        -0.0597
     23 C17        -5.0047    0.5891   -0.2509 C.ar      1 <0>         0.0176
     24 C18        -4.6668    1.2763    0.8934 C.ar      1 <0>        -0.0486
     25 C19        -5.7196    1.1638   -1.2783 C.ar      1 <0>        -0.0486
     26 C20        -5.0645    2.6076    1.0171 C.ar      1 <0>        -0.0258
     27 C21        -6.1172    2.4950   -1.1545 C.ar      1 <0>        -0.0258
     28 C22        -5.7897    3.2170   -0.0069 C.ar      1 <0>         0.1234
     29 H1          2.7691   -1.3937   -0.4250 H         1 <0>         0.0530
     30 H2          1.3432    0.0456   -1.7878 H         1 <0>         0.0298
     31 H3          0.4818    0.6367   -0.3771 H         1 <0>         0.0298
     32 H4          1.3035   -0.3334    2.0417 H         1 <0>         0.0298
     33 H5          2.6330   -1.4786    2.0125 H         1 <0>         0.0298
     34 H6         -0.8042   -1.0322   -1.4659 H         1 <0>         0.0427
     35 H7          0.4930   -2.2313   -1.4281 H         1 <0>         0.0427
     36 H8          1.2597   -3.1344    0.8280 H         1 <0>         0.0427
     37 H9          0.4230   -2.5660    2.2767 H         1 <0>         0.0427
     38 H10        -0.9404   -3.8054   -0.1460 H         1 <0>         0.0427
     39 H11        -1.6703   -3.2567    1.3662 H         1 <0>         0.0427
     40 H12        -2.4204   -2.2382   -1.4478 H         1 <0>         0.0282
     41 H13        -3.3146   -3.2973   -0.4118 H         1 <0>         0.0282
     42 H14         3.9982    3.5358    1.1446 H         1 <0>         0.1704
     43 H15        -2.6062   -0.4256    0.3274 H         1 <0>         0.0345
     44 H16        -3.5485   -1.5489    1.3354 H         1 <0>         0.0345
     45 H17         4.8597   -1.3041   -1.0940 H         1 <0>         0.0639
     46 H18         6.5893    3.2405    0.1509 H         1 <0>         0.0639
     47 H19         7.1913   -0.6521   -1.6186 H         1 <0>         0.0618
     48 H20         8.0537    1.5869   -1.0089 H         1 <0>         0.0618
     49 H21        -4.1182    0.8214    1.7115 H         1 <0>         0.0625
     50 H22        -5.9765    0.6152   -2.1794 H         1 <0>         0.0625
     51 H23        -4.8131    3.1691    1.9120 H         1 <0>         0.0646
     52 H24        -6.6807    2.9702   -1.9520 H         1 <0>         0.0646
@<TRIPOS>BOND
     1    1   28 1
     2    2   15 2
     3    3   21 2
     4    4   10 1
     5    4   11 1
     6    4   12 1
     7    5    7 1
     8    5   13 2
     9    5   15 am
    10    6   15 am
    11    6   16 2
    12    6   42 1
    13    7    8 1
    14    7    9 1
    15    7   29 1
    16    8   10 1
    17    8   30 1
    18    8   31 1
    19    9   11 1
    20    9   32 1
    21    9   33 1
    22   10   34 1
    23   10   35 1
    24   11   36 1
    25   11   37 1
    26   12   14 1
    27   12   38 1
    28   12   39 1
    29   13   16 ar
    30   13   18 ar
    31   14   17 1
    32   14   40 1
    33   14   41 1
    34   16   19 ar
    35   17   21 1
    36   17   43 1
    37   17   44 1
    38   18   20 ar
    39   18   45 1
    40   19   22 ar
    41   19   46 1
    42   20   22 ar
    43   20   47 1
    44   21   23 1
    45   22   48 1
    46   23   24 ar
    47   23   25 ar
    48   24   26 ar
    49   24   49 1
    50   25   27 ar
    51   25   50 1
    52   26   28 ar
    53   26   51 1
    54   27   28 ar
    55   27   52 1
