@<TRIPOS>MOLECULE
DB12407
   63    63     0     0     0
SMALL
USER_CHARGES

@<TRIPOS>ATOM
      1 I1          1.7673   -2.8197   -0.2611 I         1 <0>        -0.0422
      2 I2          2.0408    2.9981    1.5725 I         1 <0>        -0.0411
      3 I3         -3.1947    0.7237   -0.5893 I         1 <0>        -0.0411
      4 O1         -4.7831   -2.6619   -0.5537 O.3       1 <0>        -0.3880
      5 O2          5.4985   -2.2507    0.9302 O.3       1 <0>        -0.3880
      6 O3         -1.2853   -2.0034   -2.0679 O.2       1 <0>        -0.2699
      7 O4          3.2073   -0.4177    2.0651 O.2       1 <0>        -0.2699
      8 O5         -6.3343   -4.9097   -0.0234 O.3       1 <0>        -0.3924
      9 O6          8.0063   -0.9774    0.8727 O.3       1 <0>        -0.3924
     10 O7         -0.7999    6.3181   -1.0176 O.3       1 <0>        -0.3942
     11 O8         -4.4787    4.2558   -0.2797 O.3       1 <0>        -0.3942
     12 O9         -1.7438    3.3708   -1.5192 O.2       1 <0>        -0.2750
     13 N1         -1.9456   -2.7529    0.0454 N.am      1 <0>        -0.2980
     14 N2          3.9295    0.2075   -0.0684 N.am      1 <0>        -0.2980
     15 N3         -1.0406    2.7865    0.6405 N.am      1 <0>        -0.2834
     16 C1         -2.7163   -3.9035   -0.4211 C.3       1 <0>         0.0428
     17 C2          5.3590    0.0429    0.1867 C.3       1 <0>         0.0428
     18 C3         -0.5221   -0.7679   -0.2864 C.ar      1 <0>         0.0656
     19 C4          1.5498    0.1319    0.5707 C.ar      1 <0>         0.0656
     20 C5         -0.4134    1.5337    0.4397 C.ar      1 <0>         0.0614
     21 C6         -4.1863   -3.8401   -0.0105 C.3       1 <0>         0.0939
     22 C7          5.8607   -1.3648   -0.1296 C.3       1 <0>         0.0939
     23 C8          0.8230   -0.9352    0.0431 C.ar      1 <0>         0.0397
     24 C9         -1.2853   -1.8879   -0.8392 C.2       1 <0>         0.2485
     25 C10         2.9617   -0.0430    0.9153 C.2       1 <0>         0.2485
     26 C11        -2.2080    4.8828    0.3113 C.3       1 <0>         0.0819
     27 C12         0.9316    1.3664    0.7691 C.ar      1 <0>         0.0487
     28 C13        -1.1402    0.4666   -0.0881 C.ar      1 <0>         0.0487
     29 C14        -1.6407    3.5996   -0.3173 C.2       1 <0>         0.2247
     30 C15        -4.9911   -5.0491   -0.4761 C.3       1 <0>         0.0716
     31 C16         7.3727   -1.4350   -0.3178 C.3       1 <0>         0.0716
     32 C17        -1.9077   -2.5629    1.4887 C.3       1 <0>         0.0036
     33 C18         3.5752    0.6489   -1.4101 C.3       1 <0>         0.0036
     34 C19        -2.1557    6.0566   -0.6723 C.3       1 <0>         0.0574
     35 C20        -3.6375    4.6305    0.8046 C.3       1 <0>         0.0574
     36 H1         -2.2413   -4.8056   -0.0186 H         1 <0>         0.0491
     37 H2         -2.6438   -3.9535   -1.5133 H         1 <0>         0.0491
     38 H3          5.5334    0.2663    1.2461 H         1 <0>         0.0491
     39 H4          5.8940    0.7947   -0.4049 H         1 <0>         0.0491
     40 H5         -4.2889   -3.7638    1.0778 H         1 <0>         0.0632
     41 H6          5.3902   -1.7435   -1.0443 H         1 <0>         0.0632
     42 H7         -1.5813    5.1478    1.1729 H         1 <0>         0.0439
     43 H8         -0.7074    3.2766    1.4684 H         1 <0>         0.1549
     44 H9         -5.0135   -5.1048   -1.5694 H         1 <0>         0.0583
     45 H10        -4.5778   -5.9779   -0.0714 H         1 <0>         0.0583
     46 H11         7.6918   -2.4680   -0.4891 H         1 <0>         0.0583
     47 H12         7.6972   -0.8092   -1.1547 H         1 <0>         0.0583
     48 H13        -2.8510   -2.1136    1.8121 H         1 <0>         0.0429
     49 H14        -1.0955   -1.9161    1.8216 H         1 <0>         0.0429
     50 H15        -1.7811   -3.5342    1.9770 H         1 <0>         0.0429
     51 H16         4.0097    1.6402   -1.5733 H         1 <0>         0.0429
     52 H17         2.5033    0.7144   -1.5945 H         1 <0>         0.0429
     53 H18         4.0031   -0.0499   -2.1351 H         1 <0>         0.0429
     54 H19        -2.5639    6.9629   -0.2140 H         1 <0>         0.0565
     55 H20        -2.7134    5.8582   -1.5936 H         1 <0>         0.0565
     56 H21        -4.0499    5.5320    1.2694 H         1 <0>         0.0565
     57 H22        -3.6542    3.8211    1.5422 H         1 <0>         0.0565
     58 H23        -4.2631   -1.9009   -0.2439 H         1 <0>         0.2099
     59 H24         4.5280   -2.2561    0.9877 H         1 <0>         0.2099
     60 H25        -6.8218   -5.6916   -0.3347 H         1 <0>         0.2095
     61 H26         8.9656   -1.0344    0.7240 H         1 <0>         0.2095
     62 H27        -0.4748    5.5641   -1.5381 H         1 <0>         0.2094
     63 H28        -5.3670    4.1076    0.0870 H         1 <0>         0.2094
@<TRIPOS>BOND
     1    1   23 1
     2    2   27 1
     3    3   28 1
     4    4   21 1
     5    4   58 1
     6    5   22 1
     7    5   59 1
     8    6   24 2
     9    7   25 2
    10    8   30 1
    11    8   60 1
    12    9   31 1
    13    9   61 1
    14   10   34 1
    15   10   62 1
    16   11   35 1
    17   11   63 1
    18   12   29 2
    19   13   16 1
    20   13   24 am
    21   13   32 1
    22   14   17 1
    23   14   25 am
    24   14   33 1
    25   15   20 1
    26   15   29 am
    27   15   43 1
    28   16   21 1
    29   16   36 1
    30   16   37 1
    31   17   22 1
    32   17   38 1
    33   17   39 1
    34   18   23 ar
    35   18   24 1
    36   18   28 ar
    37   19   23 ar
    38   19   25 1
    39   19   27 ar
    40   20   27 ar
    41   20   28 ar
    42   21   30 1
    43   21   40 1
    44   22   31 1
    45   22   41 1
    46   26   29 1
    47   26   34 1
    48   26   35 1
    49   26   42 1
    50   30   44 1
    51   30   45 1
    52   31   46 1
    53   31   47 1
    54   32   48 1
    55   32   49 1
    56   32   50 1
    57   33   51 1
    58   33   52 1
    59   33   53 1
    60   34   54 1
    61   34   55 1
    62   35   56 1
    63   35   57 1
