@<TRIPOS>MOLECULE
DB12434
   95   100     0     0     0
SMALL
USER_CHARGES

@<TRIPOS>ATOM
      1 O1         -1.3578   -0.1277    1.2882 O.3       1 <0>        -0.3379
      2 O2          6.6644    2.0153   -1.7842 O.3       1 <0>        -0.4802
      3 O3          4.6463    2.1294   -0.7306 O.2       1 <0>        -0.2504
      4 O4         -0.7885    2.1348    1.3214 O.3       1 <0>        -0.3405
      5 O5         -3.1351    0.3734   -0.8561 O.3       1 <0>        -0.3378
      6 O6         -4.1403    3.1428   -0.8270 O.3       1 <0>        -0.3864
      7 O7         -1.9464    5.0139   -0.6236 O.3       1 <0>        -0.3865
      8 O8         -4.8368   -0.8260    0.1972 O.3       1 <0>        -0.3405
      9 O9          1.2611    3.8756    1.8908 O.3       1 <0>        -0.3924
     10 O10        -4.8279    0.7722   -3.0884 O.3       1 <0>        -0.3841
     11 O11        -6.8218   -1.3805   -3.3551 O.3       1 <0>        -0.3864
     12 O12        -8.2106   -1.7894   -0.8530 O.3       1 <0>        -0.3865
     13 O13        -5.8777   -1.4572    2.6618 O.3       1 <0>        -0.3924
     14 C1          2.1713   -0.9962    1.6563 C.3       1 <0>        -0.0192
     15 C2          2.5002   -1.8184    0.3583 C.3       1 <0>        -0.0292
     16 C3          3.5043   -1.1360   -0.6689 C.3       1 <0>        -0.0249
     17 C4          4.7348   -0.5684    0.1193 C.3       1 <0>        -0.0198
     18 C5          1.0602    0.0351    1.4104 C.3       1 <0>        -0.0135
     19 C6         -0.1544   -0.8655    1.1966 C.3       1 <0>         0.0939
     20 C7          3.4309   -0.3813    2.2730 C.3       1 <0>        -0.0464
     21 C8          1.2244   -2.4143   -0.3034 C.3       1 <0>        -0.0463
     22 C9          1.4681   -1.9052    2.7148 C.3       1 <0>        -0.0233
     23 C10         4.3005    0.3617    1.2684 C.3       1 <0>        -0.0482
     24 C11         5.8702    0.0316   -0.7818 C.3       1 <0>         0.0681
     25 C12         4.0117   -2.2360   -1.6667 C.3       1 <0>        -0.0470
     26 C13        -0.0457   -1.5649   -0.1622 C.3       1 <0>        -0.0195
     27 C14         0.0099   -1.8480    2.3310 C.2       1 <0>        -0.0446
     28 C15         2.8128   -0.0377   -1.5110 C.3       1 <0>        -0.0590
     29 C16         6.0079   -0.7305   -2.1217 C.3       1 <0>        -0.0372
     30 C17         5.4972   -2.1597   -2.0260 C.3       1 <0>        -0.0515
     31 C18         7.2199   -0.0393   -0.0334 C.3       1 <0>        -0.0491
     32 C19         5.6319    1.4953   -1.0765 C.2       1 <0>         0.3110
     33 C20        -0.9610   -2.5348    2.9433 C.2       1 <0>        -0.0967
     34 C21        -1.3026    1.0738    0.5198 C.3       1 <0>         0.1893
     35 C22        -2.7206    1.3967    0.0487 C.3       1 <0>         0.1406
     36 C23        -2.7771    2.7515   -0.6570 C.3       1 <0>         0.1144
     37 C24        -0.6840    3.3642    0.6015 C.3       1 <0>         0.1130
     38 C25        -2.0737    3.8327    0.1637 C.3       1 <0>         0.1119
     39 C26        -0.0093    4.3788    1.5193 C.3       1 <0>         0.0730
     40 C27        -4.5449    0.1614   -0.7888 C.3       1 <0>         0.1885
     41 C28        -5.0175   -0.3013   -2.1669 C.3       1 <0>         0.1341
     42 C29        -6.4944   -0.6962   -2.1447 C.3       1 <0>         0.1141
     43 C30        -6.2383   -1.0679    0.3325 C.3       1 <0>         0.1130
     44 C31        -6.7994   -1.6320   -0.9750 C.3       1 <0>         0.1119
     45 C32        -6.4276   -2.0387    1.4936 C.3       1 <0>         0.0730
     46 H1          3.0610   -2.6939    0.7255 H         1 <0>         0.0312
     47 H2          5.1841   -1.4447    0.6150 H         1 <0>         0.0317
     48 H3          1.2749    0.7045    0.5817 H         1 <0>         0.0302
     49 H4          0.9333    0.6709    2.2986 H         1 <0>         0.0302
     50 H5          4.0334   -1.1765    2.7327 H         1 <0>         0.0271
     51 H6          3.1633    0.3028    3.0885 H         1 <0>         0.0271
     52 H7          1.3843   -2.6594   -1.3586 H         1 <0>         0.0269
     53 H8          1.0271   -3.3828    0.1776 H         1 <0>         0.0269
     54 H9          1.8579   -2.9284    2.7024 H         1 <0>         0.0316
     55 H10         1.5896   -1.4946    3.7250 H         1 <0>         0.0316
     56 H11         3.7040    1.2148    0.9457 H         1 <0>         0.0269
     57 H12         5.1738    0.7573    1.7976 H         1 <0>         0.0269
     58 H13         3.8352   -3.2415   -1.2640 H         1 <0>         0.0271
     59 H14         3.4265   -2.1934   -2.5948 H         1 <0>         0.0271
     60 H15        -0.0708   -0.8488   -0.9884 H         1 <0>         0.0296
     61 H16        -0.9258   -2.2012   -0.3259 H         1 <0>         0.0296
     62 H17         2.5332    0.8411   -0.9341 H         1 <0>         0.0235
     63 H18         3.4446    0.3141   -2.3304 H         1 <0>         0.0235
     64 H19         1.9067   -0.4142   -1.9937 H         1 <0>         0.0235
     65 H20         5.4686   -0.2175   -2.9275 H         1 <0>         0.0276
     66 H21         7.0548   -0.7512   -2.4510 H         1 <0>         0.0276
     67 H22         5.6645   -2.6789   -2.9770 H         1 <0>         0.0266
     68 H23         6.0822   -2.7050   -1.2748 H         1 <0>         0.0266
     69 H24         8.0605    0.2909   -0.6551 H         1 <0>         0.0240
     70 H25         7.2226    0.5939    0.8605 H         1 <0>         0.0240
     71 H26         7.4413   -1.0652    0.2822 H         1 <0>         0.0240
     72 H27        -1.9961   -2.4435    2.6332 H         1 <0>         0.0535
     73 H28        -0.7361   -3.2057    3.7654 H         1 <0>         0.0535
     74 H29        -0.6804    0.9627   -0.3746 H         1 <0>         0.0938
     75 H30        -3.3784    1.4015    0.9304 H         1 <0>         0.0675
     76 H31         6.5278    2.9653   -1.9868 H         1 <0>         0.2951
     77 H32        -2.3508    2.6817   -1.6647 H         1 <0>         0.0648
     78 H33        -0.0290    3.2060   -0.2663 H         1 <0>         0.0647
     79 H34        -2.6835    4.0874    1.0392 H         1 <0>         0.0647
     80 H35        -0.5913    4.5231    2.4356 H         1 <0>         0.0584
     81 H36         0.1268    5.3433    1.0210 H         1 <0>         0.0584
     82 H37        -5.0760    1.0791   -0.5204 H         1 <0>         0.0938
     83 H38        -4.5358    3.2529    0.0545 H         1 <0>         0.2100
     84 H39        -1.3956    4.8018   -1.3965 H         1 <0>         0.2100
     85 H40        -4.4021   -1.1361   -2.5228 H         1 <0>         0.0671
     86 H41        -7.1367    0.1917   -2.1128 H         1 <0>         0.0648
     87 H42         1.6703    4.5338    2.4780 H         1 <0>         0.2095
     88 H43        -6.7319   -0.1232    0.5985 H         1 <0>         0.0647
     89 H44        -6.3759   -2.6236   -1.1763 H         1 <0>         0.0647
     90 H45        -5.3574    1.5287   -2.7833 H         1 <0>         0.2101
     91 H46        -7.4861   -2.2510    1.6717 H         1 <0>         0.0584
     92 H47        -5.8960   -2.9779    1.3073 H         1 <0>         0.0584
     93 H48        -6.2537   -2.1669   -3.4213 H         1 <0>         0.2100
     94 H49        -8.5947   -0.9170   -0.6607 H         1 <0>         0.2100
     95 H50        -6.0035   -2.0939    3.3860 H         1 <0>         0.2095
@<TRIPOS>BOND
     1    1   19 1
     2    1   34 1
     3    2   32 1
     4    2   76 1
     5    3   32 2
     6    4   34 1
     7    4   37 1
     8    5   35 1
     9    5   40 1
    10    6   36 1
    11    6   83 1
    12    7   38 1
    13    7   84 1
    14    8   40 1
    15    8   43 1
    16    9   39 1
    17    9   87 1
    18   10   41 1
    19   10   90 1
    20   11   42 1
    21   11   93 1
    22   12   44 1
    23   12   94 1
    24   13   45 1
    25   13   95 1
    26   14   15 1
    27   14   18 1
    28   14   20 1
    29   14   22 1
    30   15   16 1
    31   15   21 1
    32   15   46 1
    33   16   17 1
    34   16   25 1
    35   16   28 1
    36   17   23 1
    37   17   24 1
    38   17   47 1
    39   18   19 1
    40   18   48 1
    41   18   49 1
    42   19   26 1
    43   19   27 1
    44   20   23 1
    45   20   50 1
    46   20   51 1
    47   21   26 1
    48   21   52 1
    49   21   53 1
    50   22   27 1
    51   22   54 1
    52   22   55 1
    53   23   56 1
    54   23   57 1
    55   24   29 1
    56   24   31 1
    57   24   32 1
    58   25   30 1
    59   25   58 1
    60   25   59 1
    61   26   60 1
    62   26   61 1
    63   27   33 2
    64   28   62 1
    65   28   63 1
    66   28   64 1
    67   29   30 1
    68   29   65 1
    69   29   66 1
    70   30   67 1
    71   30   68 1
    72   31   69 1
    73   31   70 1
    74   31   71 1
    75   33   72 1
    76   33   73 1
    77   34   35 1
    78   34   74 1
    79   35   36 1
    80   35   75 1
    81   36   38 1
    82   36   77 1
    83   37   38 1
    84   37   39 1
    85   37   78 1
    86   38   79 1
    87   39   80 1
    88   39   81 1
    89   40   41 1
    90   40   82 1
    91   41   42 1
    92   41   85 1
    93   42   44 1
    94   42   86 1
    95   43   44 1
    96   43   45 1
    97   43   88 1
    98   44   89 1
    99   45   91 1
   100   45   92 1
