@<TRIPOS>MOLECULE
DB12480
   81    85     0     0     0
SMALL
USER_CHARGES

@<TRIPOS>ATOM
      1 O1         -6.7119   -1.5176    0.6288 O.3       1 <0>        -0.3912
      2 O2          4.7704    2.9912   -1.4641 O.3       1 <0>        -0.4802
      3 O3          3.5385    1.2893   -2.3482 O.2       1 <0>        -0.2504
      4 C1         -0.4493    0.9566   -0.1874 C.3       1 <0>        -0.0231
      5 C2          1.0339    0.9379    0.4880 C.3       1 <0>        -0.0232
      6 C3         -1.0497   -0.5090   -0.1434 C.3       1 <0>        -0.0294
      7 C4          1.9348   -0.1003   -0.2990 C.3       1 <0>        -0.0307
      8 C5         -2.5934   -0.6593   -0.5223 C.3       1 <0>        -0.0252
      9 C6          3.3951   -0.0677    0.2046 C.3       1 <0>        -0.0154
     10 C7         -3.3938    0.3579    0.3779 C.3       1 <0>        -0.0278
     11 C8          4.0013    1.3376    0.0415 C.3       1 <0>         0.0712
     12 C9         -1.4042    1.9175    0.5747 C.3       1 <0>        -0.0466
     13 C10        -0.1130   -1.5214   -0.8407 C.3       1 <0>        -0.0489
     14 C11         1.7228    2.3491    0.4618 C.3       1 <0>        -0.0458
     15 C12         1.3166   -1.5027   -0.2928 C.3       1 <0>        -0.0491
     16 C13        -2.8818    1.7991    0.1845 C.3       1 <0>        -0.0486
     17 C14         3.2125    2.3527    0.8677 C.3       1 <0>        -0.0364
     18 C15        -4.9611    0.2064    0.3700 C.3       1 <0>        -0.0056
     19 C16         4.4577   -0.9836   -0.4337 C.3       1 <0>        -0.0163
     20 C17        -3.0664   -2.0990   -0.1445 C.3       1 <0>        -0.0447
     21 C18        -0.3584    1.4887   -1.6493 C.3       1 <0>        -0.0588
     22 C19         0.9523    0.5452    2.0029 C.3       1 <0>        -0.0588
     23 C20         5.4432    1.0978    0.4850 C.3       1 <0>        -0.0364
     24 C21         5.7967   -0.2783   -0.1091 C.3       1 <0>        -0.0452
     25 C22        -2.8402   -0.4757   -2.0389 C.3       1 <0>        -0.0590
     26 C23        -5.3078   -1.2739    0.7069 C.3       1 <0>         0.0606
     27 C24        -4.5814   -2.2929   -0.1637 C.3       1 <0>        -0.0258
     28 C25         4.0582    1.8406   -1.3892 C.2       1 <0>         0.3112
     29 C26        -5.6246    0.6661   -0.9436 C.3       1 <0>        -0.0572
     30 C27        -5.5822    1.0850    1.4918 C.3       1 <0>        -0.0572
     31 C28         4.4536   -2.3902    0.0727 C.2       1 <0>        -0.0763
     32 C29         4.6293   -2.5610    1.5525 C.3       1 <0>        -0.0438
     33 C30         4.3010   -3.4391   -0.7491 C.2       1 <0>        -0.0994
     34 H1         -1.0354   -0.8030    0.9135 H         1 <0>         0.0312
     35 H2          1.9356    0.1858   -1.3487 H         1 <0>         0.0309
     36 H3          3.3778   -0.2923    1.2759 H         1 <0>         0.0320
     37 H4         -3.1138    0.1003    1.4137 H         1 <0>         0.0312
     38 H5         -1.0885    2.9582    0.4321 H         1 <0>         0.0271
     39 H6         -1.3580    1.7317    1.6515 H         1 <0>         0.0271
     40 H7         -0.0717   -1.3397   -1.9189 H         1 <0>         0.0268
     41 H8         -0.4899   -2.5416   -0.7186 H         1 <0>         0.0268
     42 H9          1.1850    3.0422    1.1200 H         1 <0>         0.0271
     43 H10         1.6712    2.7853   -0.5384 H         1 <0>         0.0271
     44 H11         1.3350   -1.9332    0.7145 H         1 <0>         0.0268
     45 H12         1.9009   -2.1695   -0.9319 H         1 <0>         0.0268
     46 H13        -3.4288    2.4932    0.8294 H         1 <0>         0.0268
     47 H14        -3.0434    2.1542   -0.8363 H         1 <0>         0.0268
     48 H15         3.6096    3.3677    0.7437 H         1 <0>         0.0276
     49 H16         3.3067    2.1297    1.9368 H         1 <0>         0.0276
     50 H17         4.3263   -0.9874   -1.5237 H         1 <0>         0.0348
     51 H18        -2.7061   -2.3513    0.8615 H         1 <0>         0.0271
     52 H19        -2.6268   -2.8376   -0.8253 H         1 <0>         0.0271
     53 H20         0.0717    2.4920   -1.6953 H         1 <0>         0.0235
     54 H21         0.2288    0.8476   -2.3091 H         1 <0>         0.0235
     55 H22        -1.3335    1.6011   -2.1187 H         1 <0>         0.0235
     56 H23         0.4007    1.2893    2.5845 H         1 <0>         0.0235
     57 H24         0.4835   -0.4244    2.1770 H         1 <0>         0.0235
     58 H25         1.9331    0.4888    2.4807 H         1 <0>         0.0235
     59 H26         5.4969    1.0344    1.5795 H         1 <0>         0.0276
     60 H27         6.1647    1.8592    0.1735 H         1 <0>         0.0276
     61 H28         6.3456   -0.1308   -1.0488 H         1 <0>         0.0271
     62 H29         6.4803   -0.8233    0.5472 H         1 <0>         0.0271
     63 H30        -1.9802   -0.7791   -2.6402 H         1 <0>         0.0235
     64 H31        -3.6668   -1.0878   -2.4085 H         1 <0>         0.0235
     65 H32        -3.0859    0.5519   -2.3102 H         1 <0>         0.0235
     66 H33        -5.0168   -1.4776    1.7469 H         1 <0>         0.0599
     67 H34        -4.9753   -2.2671   -1.1854 H         1 <0>         0.0290
     68 H35        -4.8180   -3.3031    0.1952 H         1 <0>         0.0290
     69 H36        -6.7156    0.7079   -0.8384 H         1 <0>         0.0236
     70 H37        -5.2969    1.6696   -1.2323 H         1 <0>         0.0236
     71 H38        -5.4282   -0.0089   -1.7768 H         1 <0>         0.0236
     72 H39        -5.1236    0.8707    2.4634 H         1 <0>         0.0236
     73 H40        -5.4594    2.1534    1.2889 H         1 <0>         0.0236
     74 H41        -6.6604    0.9210    1.5917 H         1 <0>         0.0236
     75 H42        -7.1300   -1.1190    1.4098 H         1 <0>         0.2098
     76 H43         5.4785   -2.0046    1.9544 H         1 <0>         0.0274
     77 H44         3.7274   -2.2566    2.0922 H         1 <0>         0.0274
     78 H45         4.8032   -3.6131    1.8078 H         1 <0>         0.0274
     79 H46         4.8194    3.3323   -2.3826 H         1 <0>         0.2951
     80 H47         4.2971   -4.4559   -0.3708 H         1 <0>         0.0534
     81 H48         4.1755   -3.3075   -1.8187 H         1 <0>         0.0534
@<TRIPOS>BOND
     1    1   26 1
     2    1   75 1
     3    2   28 1
     4    2   79 1
     5    3   28 2
     6    4    5 1
     7    4    6 1
     8    4   12 1
     9    4   21 1
    10    5    7 1
    11    5   14 1
    12    5   22 1
    13    6    8 1
    14    6   13 1
    15    6   34 1
    16    7    9 1
    17    7   15 1
    18    7   35 1
    19    8   10 1
    20    8   20 1
    21    8   25 1
    22    9   11 1
    23    9   19 1
    24    9   36 1
    25   10   16 1
    26   10   18 1
    27   10   37 1
    28   11   17 1
    29   11   23 1
    30   11   28 1
    31   12   16 1
    32   12   38 1
    33   12   39 1
    34   13   15 1
    35   13   40 1
    36   13   41 1
    37   14   17 1
    38   14   42 1
    39   14   43 1
    40   15   44 1
    41   15   45 1
    42   16   46 1
    43   16   47 1
    44   17   48 1
    45   17   49 1
    46   18   26 1
    47   18   29 1
    48   18   30 1
    49   19   24 1
    50   19   31 1
    51   19   50 1
    52   20   27 1
    53   20   51 1
    54   20   52 1
    55   21   53 1
    56   21   54 1
    57   21   55 1
    58   22   56 1
    59   22   57 1
    60   22   58 1
    61   23   24 1
    62   23   59 1
    63   23   60 1
    64   24   61 1
    65   24   62 1
    66   25   63 1
    67   25   64 1
    68   25   65 1
    69   26   27 1
    70   26   66 1
    71   27   67 1
    72   27   68 1
    73   29   69 1
    74   29   70 1
    75   29   71 1
    76   30   72 1
    77   30   73 1
    78   30   74 1
    79   31   32 1
    80   31   33 2
    81   32   76 1
    82   32   77 1
    83   32   78 1
    84   33   80 1
    85   33   81 1
