@<TRIPOS>MOLECULE
DB12001
   69    73     0     0     0
SMALL
USER_CHARGES

@<TRIPOS>ATOM
      1 F1          6.9375    0.0132    2.7502 F         1 <0>        -0.2032
      2 F2          6.3866   -2.9334   -1.1720 F         1 <0>        -0.2016
      3 N1         -4.1136   -0.9435    0.7627 N.3       1 <0>        -0.2957
      4 N2         -5.7401    1.2443   -0.2001 N.3       1 <0>        -0.3002
      5 N3          4.1187    2.5172    0.1701 N.pl3     1 <0>        -0.3251
      6 N4          5.6658    2.5260    1.7658 N.2       1 <0>        -0.2297
      7 N5          0.2581   -2.3523    0.5387 N.ar      1 <0>        -0.2398
      8 N6          1.1357   -4.2071   -0.6719 N.pl3     1 <0>        -0.2685
      9 N7          2.8808   -2.7069   -0.2510 N.ar      1 <0>        -0.2113
     10 N8          3.2699   -4.7568   -1.4565 N.ar      1 <0>        -0.2197
     11 C1         -5.4377   -0.6690    1.3340 C.3       1 <0>         0.0120
     12 C2         -3.5059    0.2943    0.2589 C.3       1 <0>         0.0120
     13 C3         -6.3483    0.0064    0.3029 C.3       1 <0>         0.0117
     14 C4         -4.4168    0.9686   -0.7729 C.3       1 <0>         0.0117
     15 C5         -3.2453   -1.5840    1.7487 C.3       1 <0>         0.0256
     16 C6         -6.6085    1.8865   -1.1848 C.3       1 <0>        -0.0039
     17 C7         -2.0934   -2.3029    1.0983 C.ar      1 <0>        -0.0152
     18 C8         -7.9563    2.2406   -0.5800 C.3       1 <0>        -0.0524
     19 C9          3.1423    3.0161   -0.7718 C.3       1 <0>         0.0305
     20 C10         4.4625    1.2024    0.3539 C.2       1 <0>         0.0725
     21 C11        -2.2759   -3.5303    0.4708 C.ar      1 <0>        -0.0527
     22 C12        -0.8182   -1.7612    1.1046 C.ar      1 <0>         0.0341
     23 C13         4.8639    3.2684    1.0358 C.cat     1 <0>         0.1080
     24 C14         5.4296    1.2343    1.3548 C.2       1 <0>         0.1244
     25 C15         1.7413    2.4795   -0.4681 C.3       1 <0>        -0.0444
     26 C16         3.5434    2.7062   -2.2161 C.3       1 <0>        -0.0444
     27 C17         4.0240    0.0240   -0.2510 C.2       1 <0>        -0.0266
     28 C18         4.6065   -1.1670    0.1950 C.2       1 <0>         0.0081
     29 C19        -1.1930   -4.1693   -0.1228 C.ar      1 <0>        -0.0212
     30 C20         6.0042    0.0284    1.7905 C.2       1 <0>         0.1513
     31 C21         0.0419   -3.5441   -0.0618 C.ar      1 <0>         0.1250
     32 C22         4.7458    4.7394    1.1038 C.3       1 <0>        -0.0062
     33 C23         5.5792   -1.1671    1.1974 C.2       1 <0>        -0.0149
     34 C24         4.1914   -2.4187   -0.3919 C.ar      1 <0>         0.1113
     35 C25         2.4937   -3.8745   -0.7991 C.ar      1 <0>         0.2212
     36 C26         5.0910   -3.2379   -1.0429 C.ar      1 <0>         0.1673
     37 C27         4.5686   -4.4057   -1.5606 C.ar      1 <0>         0.0685
     38 H1         -5.9113   -1.6089    1.6435 H         1 <0>         0.0439
     39 H2         -2.5520    0.0846   -0.2375 H         1 <0>         0.0439
     40 H3         -3.3008    0.9951    1.0798 H         1 <0>         0.0439
     41 H4         -5.3536   -0.0349    2.2271 H         1 <0>         0.0439
     42 H5         -3.9453    1.9081   -1.0862 H         1 <0>         0.0439
     43 H6         -4.5000    0.3314   -1.6639 H         1 <0>         0.0439
     44 H7         -7.2932    0.2075    0.8180 H         1 <0>         0.0439
     45 H8         -6.5596   -0.6912   -0.5188 H         1 <0>         0.0439
     46 H9         -2.8867   -0.8702    2.5027 H         1 <0>         0.0476
     47 H10        -3.8056   -2.3427    2.3133 H         1 <0>         0.0476
     48 H11        -6.7562    1.2563   -2.0708 H         1 <0>         0.0424
     49 H12        -6.1382    2.8177   -1.5240 H         1 <0>         0.0424
     50 H13        -8.5957    1.3637   -0.4399 H         1 <0>         0.0242
     51 H14        -7.8474    2.7587    0.3790 H         1 <0>         0.0242
     52 H15        -8.4941    2.9151   -1.2558 H         1 <0>         0.0242
     53 H16         3.0980    4.1054   -0.6761 H         1 <0>         0.0523
     54 H17        -3.2566   -3.9971    0.4380 H         1 <0>         0.0622
     55 H18        -0.6113   -0.8059    1.5771 H         1 <0>         0.0833
     56 H19         2.8769    3.2293   -2.9112 H         1 <0>         0.0249
     57 H20         4.5653    3.0465   -2.4184 H         1 <0>         0.0249
     58 H21         3.4915    1.6437   -2.4635 H         1 <0>         0.0249
     59 H22         1.4736    2.6591    0.5793 H         1 <0>         0.0249
     60 H23         0.9997    2.9916   -1.0915 H         1 <0>         0.0249
     61 H24         1.6342    1.4093   -0.6592 H         1 <0>         0.0249
     62 H25         3.2728    0.0143   -1.0307 H         1 <0>         0.0645
     63 H26        -1.3309   -5.1271   -0.6138 H         1 <0>         0.0652
     64 H27         5.4293    5.1399    1.8600 H         1 <0>         0.0307
     65 H28         3.7321    5.0422    1.3845 H         1 <0>         0.0307
     66 H29         5.0076    5.2019    0.1471 H         1 <0>         0.0307
     67 H30         6.0233   -2.0985    1.5435 H         1 <0>         0.0653
     68 H31         0.9059   -5.0967   -1.1041 H         1 <0>         0.1564
     69 H32         5.1992   -5.1124   -2.0892 H         1 <0>         0.0861
@<TRIPOS>BOND
     1    1   30 1
     2    2   36 1
     3    3   11 1
     4    3   12 1
     5    3   15 1
     6    4   13 1
     7    4   14 1
     8    4   16 1
     9    5   19 1
    10    5   20 1
    11    5   23 2
    12    6   23 1
    13    6   24 2
    14    7   22 ar
    15    7   31 ar
    16    8   31 1
    17    8   35 1
    18    8   68 1
    19    9   34 ar
    20    9   35 ar
    21   10   35 ar
    22   10   37 ar
    23   11   13 1
    24   11   38 1
    25   11   41 1
    26   12   14 1
    27   12   39 1
    28   12   40 1
    29   13   44 1
    30   13   45 1
    31   14   42 1
    32   14   43 1
    33   15   17 1
    34   15   46 1
    35   15   47 1
    36   16   18 1
    37   16   48 1
    38   16   49 1
    39   17   21 ar
    40   17   22 ar
    41   18   50 1
    42   18   51 1
    43   18   52 1
    44   19   25 1
    45   19   26 1
    46   19   53 1
    47   20   24 1
    48   20   27 2
    49   21   29 ar
    50   21   54 1
    51   22   55 1
    52   23   32 1
    53   24   30 2
    54   25   59 1
    55   25   60 1
    56   25   61 1
    57   26   56 1
    58   26   57 1
    59   26   58 1
    60   27   28 1
    61   27   62 1
    62   28   33 2
    63   28   34 1
    64   29   31 ar
    65   29   63 1
    66   30   33 1
    67   32   64 1
    68   32   65 1
    69   32   66 1
    70   33   67 1
    71   34   36 ar
    72   36   37 ar
    73   37   69 1
