@<TRIPOS>MOLECULE
DB12500
   73    76     0     0     0
SMALL
USER_CHARGES

@<TRIPOS>ATOM
      1 S1          0.4278    1.5858   -0.0104 S.o2      1 <0>         0.0589
      2 O1          2.3198   -3.3700    0.2073 O.3       1 <0>        -0.4907
      3 O2          1.6388    2.0769    0.6348 O.2       1 <0>        -0.1530
      4 O3          0.3274    0.1749   -0.3588 O.2       1 <0>        -0.1530
      5 N1          4.9463   -1.0341    1.2944 N.3       1 <0>        -0.2991
      6 N2          0.1415    2.5164   -1.4150 N.pl3     1 <0>        -0.1846
      7 N3         -4.3837    0.7831    1.6326 N.pl3     1 <0>        -0.2990
      8 N4         -3.1779   -3.1538   -0.6643 N.pl3     1 <0>        -0.2836
      9 N5         -3.7637   -1.1952    0.4811 N.ar      1 <0>        -0.1989
     10 N6         -5.4302   -2.5069   -0.6634 N.ar      1 <0>        -0.2223
     11 C1          6.3216   -0.7727    0.8707 C.3       1 <0>        -0.0010
     12 C2          4.2478    0.2393    1.1231 C.3       1 <0>        -0.0010
     13 C3          6.6149    0.5886    1.4842 C.3       1 <0>        -0.0390
     14 C4          5.2516    1.2522    1.6533 C.3       1 <0>        -0.0390
     15 C5          4.3278   -2.1133    0.5388 C.3       1 <0>         0.0331
     16 C6          2.8882   -2.3216    0.9810 C.3       1 <0>         0.1022
     17 C7          0.5628    2.0083   -2.7284 C.3       1 <0>         0.0316
     18 C8          2.0628    1.7157   -2.6693 C.3       1 <0>        -0.0457
     19 C9         -0.2255    0.7328   -3.0289 C.3       1 <0>        -0.0457
     20 C10         0.2688    3.0848   -3.7743 C.3       1 <0>        -0.0457
     21 C11        -0.9446    1.9857    0.9922 C.ar      1 <0>         0.1070
     22 C12         0.9674   -3.3164   -0.0071 C.ar      1 <0>         0.1207
     23 C13        -2.1124    1.2273    0.9116 C.ar      1 <0>        -0.0141
     24 C14        -0.8727    3.0638    1.8744 C.ar      1 <0>        -0.0352
     25 C15        -3.2082    1.5467    1.7132 C.ar      1 <0>         0.0342
     26 C16         0.4247   -3.8530   -1.1748 C.ar      1 <0>        -0.0182
     27 C17         0.1334   -2.7256    0.9421 C.ar      1 <0>        -0.0182
     28 C18        -1.9687    3.3833    2.6760 C.ar      1 <0>        -0.0582
     29 C19        -3.1364    2.6249    2.5955 C.ar      1 <0>        -0.0404
     30 C20        -1.7859   -3.2082   -0.4438 C.ar      1 <0>         0.0338
     31 C21        -0.9518   -3.7990   -1.3931 C.ar      1 <0>        -0.0370
     32 C22        -1.2433   -2.6714    0.7237 C.ar      1 <0>        -0.0370
     33 C23        -4.7417   -0.3411    0.8484 C.ar      1 <0>         0.1309
     34 C24        -6.0683   -0.5004    0.5033 C.ar      1 <0>         0.0078
     35 C25        -4.1724   -2.2408   -0.2627 C.ar      1 <0>         0.2212
     36 C26        -6.3568   -1.6126   -0.2611 C.ar      1 <0>         0.0374
     37 C27        -7.1423    0.4432    0.9098 C.3       1 <0>        -0.0350
     38 H1          6.4065   -0.7112   -0.2220 H         1 <0>         0.0427
     39 H2          7.0175   -1.5362    1.2321 H         1 <0>         0.0427
     40 H3          3.3255    0.2952    1.7080 H         1 <0>         0.0427
     41 H4          4.0256    0.4493    0.0692 H         1 <0>         0.0427
     42 H5          7.2781    1.1818    0.8465 H         1 <0>         0.0278
     43 H6          7.0979    0.4793    2.4623 H         1 <0>         0.0278
     44 H7          5.0712    1.4630    2.7141 H         1 <0>         0.0278
     45 H8          5.1910    2.1995    1.1080 H         1 <0>         0.0278
     46 H9          4.3533   -1.9217   -0.5426 H         1 <0>         0.0460
     47 H10         4.8837   -3.0467    0.6934 H         1 <0>         0.0460
     48 H11         2.8507   -2.5975    2.0418 H         1 <0>         0.0709
     49 H12         2.3228   -1.3977    0.8235 H         1 <0>         0.0709
     50 H13        -0.7264    3.0687   -1.4338 H         1 <0>         0.1486
     51 H14         2.3149    0.8936   -1.9919 H         1 <0>         0.0248
     52 H15         2.6266    2.5965   -2.3401 H         1 <0>         0.0248
     53 H16         2.4392    1.4338   -3.6595 H         1 <0>         0.0248
     54 H17        -0.2598    0.5570   -4.1115 H         1 <0>         0.0248
     55 H18        -1.2635    0.7978   -2.6824 H         1 <0>         0.0248
     56 H19         0.2268   -0.1719   -2.6147 H         1 <0>         0.0248
     57 H20         0.5894    2.7688   -4.7731 H         1 <0>         0.0248
     58 H21         0.7873    4.0207   -3.5358 H         1 <0>         0.0248
     59 H22        -0.8032    3.3097   -3.8214 H         1 <0>         0.0248
     60 H23        -2.1469    0.4274    0.1837 H         1 <0>         0.0656
     61 H24         0.0246    3.6716    1.9486 H         1 <0>         0.0637
     62 H25         1.0699   -4.3135   -1.9179 H         1 <0>         0.0655
     63 H26         0.5108   -2.3292    1.8803 H         1 <0>         0.0655
     64 H27        -1.9133    4.2237    3.3620 H         1 <0>         0.0619
     65 H28        -3.9828    2.8856    3.2258 H         1 <0>         0.0636
     66 H29        -1.3620   -4.2194   -2.3077 H         1 <0>         0.0637
     67 H30        -1.8583   -2.2473    1.5103 H         1 <0>         0.0637
     68 H31        -5.1045    1.0744    2.2861 H         1 <0>         0.1536
     69 H32        -3.5231   -3.8389   -1.3298 H         1 <0>         0.1550
     70 H33        -7.3684   -1.8336   -0.5869 H         1 <0>         0.0834
     71 H34        -7.2996    0.4031    1.9924 H         1 <0>         0.0279
     72 H35        -6.8919    1.4684    0.6172 H         1 <0>         0.0279
     73 H36        -8.0962    0.1980    0.4298 H         1 <0>         0.0279
@<TRIPOS>BOND
     1    1    3 2
     2    1    4 2
     3    1    6 1
     4    1   21 1
     5    2   16 1
     6    2   22 1
     7    5   11 1
     8    5   12 1
     9    5   15 1
    10    6   17 1
    11    6   50 1
    12    7   25 1
    13    7   33 1
    14    7   68 1
    15    8   30 1
    16    8   35 1
    17    8   69 1
    18    9   33 ar
    19    9   35 ar
    20   10   35 ar
    21   10   36 ar
    22   11   13 1
    23   11   38 1
    24   11   39 1
    25   12   14 1
    26   12   40 1
    27   12   41 1
    28   13   14 1
    29   13   42 1
    30   13   43 1
    31   14   44 1
    32   14   45 1
    33   15   16 1
    34   15   46 1
    35   15   47 1
    36   16   48 1
    37   16   49 1
    38   17   18 1
    39   17   19 1
    40   17   20 1
    41   18   51 1
    42   18   52 1
    43   18   53 1
    44   19   54 1
    45   19   55 1
    46   19   56 1
    47   20   57 1
    48   20   58 1
    49   20   59 1
    50   21   23 ar
    51   21   24 ar
    52   22   26 ar
    53   22   27 ar
    54   23   25 ar
    55   23   60 1
    56   24   28 ar
    57   24   61 1
    58   25   29 ar
    59   26   31 ar
    60   26   62 1
    61   27   32 ar
    62   27   63 1
    63   28   29 ar
    64   28   64 1
    65   29   65 1
    66   30   31 ar
    67   30   32 ar
    68   31   66 1
    69   32   67 1
    70   33   34 ar
    71   34   36 ar
    72   34   37 1
    73   36   70 1
    74   37   71 1
    75   37   72 1
    76   37   73 1
