@<TRIPOS>MOLECULE
DB12300
   24    25     0     0     0
SMALL
USER_CHARGES

@<TRIPOS>ATOM
      1 O1          5.0688   -1.0973   -0.0085 O.3       1 <0>        -0.5760
      2 O2          5.0681    1.0979    0.0019 O.2       1 <0>         0.0414
      3 N1          4.4603    0.0001   -0.0017 N.pl3     1 <0>         0.0796
      4 C1          0.2507   -0.0001    0.0022 C.ar      1 <0>        -0.0175
      5 C2         -1.1962    0.0004    0.0010 C.ar      1 <0>        -0.0179
      6 C3          0.9477   -1.2081   -0.0026 C.ar      1 <0>        -0.0476
      7 C4          0.9483    1.2078    0.0067 C.ar      1 <0>        -0.0476
      8 C5         -1.8925    0.0054   -1.2078 C.ar      1 <0>        -0.0540
      9 C6         -1.8950   -0.0050    1.2084 C.ar      1 <0>        -0.0540
     10 C7          3.0405   -0.0004    0.0015 C.ar      1 <0>         0.2732
     11 C8          2.3426   -1.2084   -0.0030 C.ar      1 <0>         0.0162
     12 C9          2.3432    1.2077    0.0063 C.ar      1 <0>         0.0162
     13 C10        -3.2875    0.0054   -1.2093 C.ar      1 <0>        -0.0612
     14 C11        -3.2899   -0.0052    1.2067 C.ar      1 <0>        -0.0612
     15 C12        -3.9860    0.0001   -0.0021 C.ar      1 <0>        -0.0617
     16 H1          0.4190   -2.1584   -0.0066 H         1 <0>         0.0626
     17 H2          0.4197    2.1583    0.0100 H         1 <0>         0.0626
     18 H3         -1.3635    0.0094   -2.1579 H         1 <0>         0.0624
     19 H4         -1.3680   -0.0092    2.1596 H         1 <0>         0.0624
     20 H5          2.8525   -2.1683   -0.0072 H         1 <0>         0.0685
     21 H6          2.8532    2.1677    0.0093 H         1 <0>         0.0685
     22 H7         -3.8296    0.0093   -2.1504 H         1 <0>         0.0618
     23 H8         -3.8342   -0.0094    2.1466 H         1 <0>         0.0618
     24 H9         -5.0720   -0.0000   -0.0031 H         1 <0>         0.0618
@<TRIPOS>BOND
     1    1    3 1
     2    2    3 2
     3    3   10 1
     4    4    5 1
     5    4    6 ar
     6    4    7 ar
     7    5    8 ar
     8    5    9 ar
     9    6   11 ar
    10    6   16 1
    11    7   12 ar
    12    7   17 1
    13    8   13 ar
    14    8   18 1
    15    9   14 ar
    16    9   19 1
    17   10   11 ar
    18   10   12 ar
    19   11   20 1
    20   12   21 1
    21   13   15 ar
    22   13   22 1
    23   14   15 ar
    24   14   23 1
    25   15   24 1
