@<TRIPOS>MOLECULE
DB12710
   49    52     0     0     0
SMALL
USER_CHARGES

@<TRIPOS>ATOM
      1 S1         -5.4377    0.3545    0.3420 S.3       1 <0>        -0.0857
      2 N1          2.4150   -0.5410   -0.4629 N.3       1 <0>        -0.2999
      3 N2          5.0124    0.3692    0.4220 N.3       1 <0>        -0.3029
      4 N3         -2.4974   -0.0405   -0.5874 N.pl3     1 <0>        -0.2983
      5 C1          2.5676    0.7054    0.2973 C.3       1 <0>         0.0117
      6 C2          3.6260   -0.8144   -1.2467 C.3       1 <0>         0.0117
      7 C3          1.2391   -0.4803   -1.3289 C.3       1 <0>         0.0004
      8 C4          3.8010    0.6429    1.2048 C.3       1 <0>         0.0114
      9 C5          4.8601   -0.8762   -0.3401 C.3       1 <0>         0.0114
     10 C6         -0.0515   -0.2892   -0.5293 C.3       1 <0>        -0.0240
     11 C7         -1.2994   -0.2415   -1.4129 C.3       1 <0>         0.0185
     12 C8          6.1876    0.3068    1.2889 C.3       1 <0>        -0.0127
     13 C9         -2.8787    1.2954   -0.3044 C.ar      1 <0>         0.0479
     14 C10        -3.1432   -1.1972   -0.0815 C.ar      1 <0>         0.0479
     15 C11        -4.1782    1.5996    0.1473 C.ar      1 <0>         0.0341
     16 C12        -4.4688   -1.1398    0.3926 C.ar      1 <0>         0.0341
     17 C13        -1.9737    2.3728   -0.4249 C.ar      1 <0>        -0.0393
     18 C14        -2.4850   -2.4436    0.0054 C.ar      1 <0>        -0.0393
     19 C15        -4.5489    2.9254    0.4336 C.ar      1 <0>        -0.0462
     20 C16        -5.1019   -2.2883    0.9005 C.ar      1 <0>        -0.0462
     21 C17        -2.3459    3.6881   -0.1343 C.ar      1 <0>        -0.0599
     22 C18        -3.1173   -3.5807    0.5155 C.ar      1 <0>        -0.0599
     23 C19        -3.6359    3.9652    0.2923 C.ar      1 <0>        -0.0606
     24 C20        -4.4282   -3.5037    0.9608 C.ar      1 <0>        -0.0606
     25 H1          1.7250    0.8758    0.9730 H         1 <0>         0.0439
     26 H2          2.6411    1.5724   -0.3729 H         1 <0>         0.0439
     27 H3          3.7742   -0.0478   -2.0195 H         1 <0>         0.0439
     28 H4          3.5271   -1.7792   -1.7588 H         1 <0>         0.0439
     29 H5          1.3365    0.3271   -2.0666 H         1 <0>         0.0427
     30 H6          1.1544   -1.4198   -1.8898 H         1 <0>         0.0427
     31 H7          3.9022    1.6075    1.7172 H         1 <0>         0.0439
     32 H8          3.6531   -0.1237    1.9779 H         1 <0>         0.0439
     33 H9          4.7799   -1.7403    0.3334 H         1 <0>         0.0439
     34 H10         5.7434   -1.0351   -0.9707 H         1 <0>         0.0439
     35 H11        -0.0082    0.6265    0.0594 H         1 <0>         0.0293
     36 H12        -0.1197   -1.0887    0.2159 H         1 <0>         0.0293
     37 H13        -1.3802   -1.1568   -2.0142 H         1 <0>         0.0468
     38 H14        -1.2044    0.5481   -2.1703 H         1 <0>         0.0468
     39 H15         7.0947    0.1476    0.6954 H         1 <0>         0.0391
     40 H16         6.1146   -0.4974    2.0299 H         1 <0>         0.0391
     41 H17         6.3230    1.2548    1.8214 H         1 <0>         0.0391
     42 H18        -0.9561    2.2454   -0.7775 H         1 <0>         0.0636
     43 H19        -1.4671   -2.5899   -0.3395 H         1 <0>         0.0636
     44 H20        -5.5560    3.1627    0.7707 H         1 <0>         0.0629
     45 H21        -6.1297   -2.2475    1.2558 H         1 <0>         0.0629
     46 H22        -1.6259    4.4932   -0.2492 H         1 <0>         0.0618
     47 H23        -2.5825   -4.5251    0.5583 H         1 <0>         0.0618
     48 H24        -3.9311    4.9857    0.5159 H         1 <0>         0.0618
     49 H25        -4.9251   -4.3847    1.3551 H         1 <0>         0.0618
@<TRIPOS>BOND
     1    1   15 1
     2    1   16 1
     3    2    5 1
     4    2    6 1
     5    2    7 1
     6    3    8 1
     7    3    9 1
     8    3   12 1
     9    4   11 1
    10    4   13 1
    11    4   14 1
    12    5    8 1
    13    5   25 1
    14    5   26 1
    15    6    9 1
    16    6   27 1
    17    6   28 1
    18    7   10 1
    19    7   29 1
    20    7   30 1
    21    8   31 1
    22    8   32 1
    23    9   33 1
    24    9   34 1
    25   10   11 1
    26   10   35 1
    27   10   36 1
    28   11   37 1
    29   11   38 1
    30   12   39 1
    31   12   40 1
    32   12   41 1
    33   13   15 ar
    34   13   17 ar
    35   14   16 ar
    36   14   18 ar
    37   15   19 ar
    38   16   20 ar
    39   17   21 ar
    40   17   42 1
    41   18   22 ar
    42   18   43 1
    43   19   23 ar
    44   19   44 1
    45   20   24 ar
    46   20   45 1
    47   21   23 ar
    48   21   46 1
    49   22   24 ar
    50   22   47 1
    51   23   48 1
    52   24   49 1
