@<TRIPOS>MOLECULE
DB12267
   79    83     0     0     0
SMALL
USER_CHARGES

@<TRIPOS>ATOM
      1 Cl1         8.5995    1.4474    0.3003 Cl        1 <0>        -0.0784
      2 P1          6.2799   -3.0716    0.5380 P.3       1 <0>         0.1124
      3 O1          0.9573    4.9884    0.3241 O.3       1 <0>        -0.4932
      4 O2          7.0253   -2.1109    1.4246 O.2       1 <0>        -0.3167
      5 N1         -5.8408   -0.2904    0.1638 N.3       1 <0>        -0.2969
      6 N2         -1.8469    1.0964    0.4361 N.pl3     1 <0>        -0.3297
      7 N3         -8.3978   -1.5923   -0.1897 N.3       1 <0>        -0.3029
      8 N4          3.1995    3.4500    1.0484 N.pl3     1 <0>        -0.2806
      9 N5          4.6065    1.6726    0.4587 N.ar      1 <0>        -0.1977
     10 N6          5.5136    3.8073    1.1123 N.ar      1 <0>        -0.2211
     11 N7          6.0408   -0.1121   -0.1320 N.pl3     1 <0>        -0.2976
     12 C1         -4.3910   -0.2035    0.0006 C.3       1 <0>         0.0133
     13 C2         -4.0059    1.0726   -0.7529 C.3       1 <0>        -0.0215
     14 C3         -3.7088   -0.2188    1.3703 C.3       1 <0>        -0.0215
     15 C4         -2.4881    1.2004   -0.8821 C.3       1 <0>         0.0136
     16 C5         -2.1911   -0.0831    1.2379 C.3       1 <0>         0.0136
     17 C6         -6.5121   -0.3100   -1.1415 C.3       1 <0>         0.0120
     18 C7         -6.2072   -1.4769    0.9468 C.3       1 <0>         0.0120
     19 C8         -7.7275   -1.5708    1.1161 C.3       1 <0>         0.0114
     20 C9         -8.0324   -0.4054   -0.9725 C.3       1 <0>         0.0114
     21 C10        -0.5871    1.6881    0.5882 C.ar      1 <0>         0.0333
     22 C11        -9.8476   -1.6810   -0.0277 C.3       1 <0>        -0.0127
     23 C12        -0.4302    3.0583    0.3801 C.ar      1 <0>         0.0029
     24 C13         0.5112    0.9071    0.9478 C.ar      1 <0>        -0.0387
     25 C14         0.8249    3.6478    0.5318 C.ar      1 <0>         0.1429
     26 C15         1.7664    1.4965    1.0993 C.ar      1 <0>        -0.0351
     27 C16         1.9232    2.8668    0.8914 C.ar      1 <0>         0.0759
     28 C17         4.5030    2.9525    0.8641 C.ar      1 <0>         0.2213
     29 C18         1.2693    5.4101   -1.0019 C.3       1 <0>         0.0789
     30 C19         5.2725   -2.3421   -0.7218 C.ar      1 <0>         0.0325
     31 C20         5.2546   -0.9624   -0.9262 C.ar      1 <0>         0.0429
     32 C21         5.8698    1.2285    0.2925 C.ar      1 <0>         0.1465
     33 C22         7.4372   -4.2090   -0.2333 C.3       1 <0>        -0.0072
     34 C23         5.2569   -4.1552    1.5416 C.3       1 <0>        -0.0072
     35 C24         4.4868   -3.1753   -1.5180 C.ar      1 <0>        -0.0495
     36 C25         6.9902    2.0033    0.5131 C.ar      1 <0>         0.0991
     37 C26         6.7489    3.2978    0.9259 C.ar      1 <0>         0.0528
     38 C27         4.4508   -0.4158   -1.9267 C.ar      1 <0>        -0.0398
     39 C28         3.6832   -2.6289   -2.5186 C.ar      1 <0>        -0.0610
     40 C29         3.6651   -1.2490   -2.7228 C.ar      1 <0>        -0.0600
     41 H1         -4.0278   -1.0684   -0.5738 H         1 <0>         0.0463
     42 H2         -4.0923    0.5980    1.9962 H         1 <0>         0.0295
     43 H3         -3.8683   -1.1565    1.9110 H         1 <0>         0.0295
     44 H4         -4.3993    1.0893   -1.7736 H         1 <0>         0.0295
     45 H5         -4.4012    1.9546   -0.2316 H         1 <0>         0.0295
     46 H6         -1.7724   -0.0035    2.2490 H         1 <0>         0.0464
     47 H7         -1.7783   -0.9858    0.7700 H         1 <0>         0.0464
     48 H8         -2.0974    0.4099   -1.5356 H         1 <0>         0.0464
     49 H9         -2.2679    2.1566   -1.3707 H         1 <0>         0.0464
     50 H10        -5.8254   -2.3956    0.4819 H         1 <0>         0.0439
     51 H11        -5.8221   -1.4277    1.9691 H         1 <0>         0.0439
     52 H12        -6.3438    0.6159   -1.6986 H         1 <0>         0.0439
     53 H13        -6.1540   -1.1443   -1.7596 H         1 <0>         0.0439
     54 H14        -7.9579   -2.4921    1.6650 H         1 <0>         0.0439
     55 H15        -8.4096    0.5095   -0.4952 H         1 <0>         0.0439
     56 H16        -8.4877   -0.4650   -1.9687 H         1 <0>         0.0439
     57 H17        -8.0851   -0.7294    1.7254 H         1 <0>         0.0439
     58 H18       -10.1183   -2.5916    0.5181 H         1 <0>         0.0391
     59 H19       -10.3405   -1.7421   -1.0043 H         1 <0>         0.0391
     60 H20       -10.2585   -0.8204    0.5125 H         1 <0>         0.0391
     61 H21        -1.2818    3.6806    0.1143 H         1 <0>         0.0673
     62 H22         0.4270   -0.1635    1.1118 H         1 <0>         0.0637
     63 H23         2.5807    0.8564    1.4217 H         1 <0>         0.0638
     64 H24         3.1813    4.4512    1.2177 H         1 <0>         0.1551
     65 H25         2.2189    4.9784   -1.3335 H         1 <0>         0.0660
     66 H26         0.4676    5.1275   -1.6916 H         1 <0>         0.0660
     67 H27         1.3623    6.4995   -1.0018 H         1 <0>         0.0660
     68 H28         6.8475   -0.5562    0.2939 H         1 <0>         0.1536
     69 H29         8.0486   -4.6997    0.5294 H         1 <0>         0.0309
     70 H30         6.9120   -4.9824   -0.8003 H         1 <0>         0.0309
     71 H31         8.1008   -3.6682   -0.9137 H         1 <0>         0.0309
     72 H32         5.8619   -4.6232    2.3234 H         1 <0>         0.0309
     73 H33         4.4573   -3.5832    2.0204 H         1 <0>         0.0309
     74 H34         4.8063   -4.9496    0.9409 H         1 <0>         0.0309
     75 H35         4.4941   -4.2513   -1.3733 H         1 <0>         0.0625
     76 H36         4.4284    0.6541   -2.1157 H         1 <0>         0.0636
     77 H37         7.5585    3.9925    1.1273 H         1 <0>         0.0847
     78 H38         3.0726   -3.2776   -3.1397 H         1 <0>         0.0618
     79 H39         3.0415   -0.8241   -3.5039 H         1 <0>         0.0618
@<TRIPOS>BOND
     1    1   36 1
     2    2    4 2
     3    2   30 1
     4    2   33 1
     5    2   34 1
     6    3   25 1
     7    3   29 1
     8    5   12 1
     9    5   17 1
    10    5   18 1
    11    6   15 1
    12    6   16 1
    13    6   21 1
    14    7   19 1
    15    7   20 1
    16    7   22 1
    17    8   27 1
    18    8   28 1
    19    8   64 1
    20    9   28 ar
    21    9   32 ar
    22   10   28 ar
    23   10   37 ar
    24   11   31 1
    25   11   32 1
    26   11   68 1
    27   12   13 1
    28   12   14 1
    29   12   41 1
    30   13   15 1
    31   13   44 1
    32   13   45 1
    33   14   16 1
    34   14   42 1
    35   14   43 1
    36   15   48 1
    37   15   49 1
    38   16   46 1
    39   16   47 1
    40   17   20 1
    41   17   52 1
    42   17   53 1
    43   18   19 1
    44   18   50 1
    45   18   51 1
    46   19   54 1
    47   19   57 1
    48   20   55 1
    49   20   56 1
    50   21   23 ar
    51   21   24 ar
    52   22   58 1
    53   22   59 1
    54   22   60 1
    55   23   25 ar
    56   23   61 1
    57   24   26 ar
    58   24   62 1
    59   25   27 ar
    60   26   27 ar
    61   26   63 1
    62   29   65 1
    63   29   66 1
    64   29   67 1
    65   30   31 ar
    66   30   35 ar
    67   31   38 ar
    68   32   36 ar
    69   33   69 1
    70   33   70 1
    71   33   71 1
    72   34   72 1
    73   34   73 1
    74   34   74 1
    75   35   39 ar
    76   35   75 1
    77   36   37 ar
    78   37   77 1
    79   38   40 ar
    80   38   76 1
    81   39   40 ar
    82   39   78 1
    83   40   79 1
