@<TRIPOS>MOLECULE
DB12728
   51    52     0     0     0
SMALL
USER_CHARGES

@<TRIPOS>ATOM
      1 N1         -3.2989    0.0720    0.2948 N.3       1 <0>        -0.3021
      2 C1         -2.1095    0.7207    0.8458 C.3       1 <0>         0.0018
      3 C2         -1.5296    1.7794   -0.1145 C.3       1 <0>        -0.0271
      4 C3         -2.9663   -0.6435   -0.9450 C.3       1 <0>        -0.0011
      5 C4         -3.8968   -0.8331    1.2865 C.3       1 <0>        -0.0011
      6 C5         -4.2094   -1.2872   -1.5609 C.3       1 <0>        -0.0402
      7 C6         -5.1704   -1.4829    0.7434 C.3       1 <0>        -0.0402
      8 C7         -4.9047   -2.2123   -0.5684 C.3       1 <0>        -0.0507
      9 C8         -0.2674    2.4439    0.4804 C.3       1 <0>        -0.0239
     10 C9         -2.5627    2.8682   -0.4353 C.3       1 <0>        -0.0610
     11 C10         0.9888    1.6190    0.3369 C.ar      1 <0>        -0.0470
     12 C11         4.5373   -0.7082   -0.0673 C.3       1 <0>        -0.0127
     13 C12         3.2959    0.1058    0.0743 C.ar      1 <0>        -0.0420
     14 C13         1.3299    0.7222    1.3365 C.ar      1 <0>        -0.0583
     15 C14         1.7781    1.7745   -0.7915 C.ar      1 <0>        -0.0583
     16 C15         2.4911   -0.0394    1.2045 C.ar      1 <0>        -0.0578
     17 C16         2.9393    1.0129   -0.9237 C.ar      1 <0>        -0.0578
     18 C17         4.2161   -2.2350   -0.0646 C.3       1 <0>        -0.0560
     19 C18         5.5304   -0.4345    1.1046 C.3       1 <0>        -0.0560
     20 C19         5.3587   -0.4580   -1.3756 C.3       1 <0>        -0.0560
     21 H1         -1.3510   -0.0343    1.0817 H         1 <0>         0.0429
     22 H2         -2.3699    1.2172    1.7900 H         1 <0>         0.0429
     23 H3         -1.2218    1.3250   -1.0620 H         1 <0>         0.0314
     24 H4         -2.2035   -1.4121   -0.7634 H         1 <0>         0.0426
     25 H5         -2.5803    0.0282   -1.7160 H         1 <0>         0.0426
     26 H6         -4.1610   -0.2720    2.1910 H         1 <0>         0.0426
     27 H7         -3.1838   -1.6137    1.5834 H         1 <0>         0.0426
     28 H8         -4.9087   -0.5044   -1.8820 H         1 <0>         0.0278
     29 H9         -3.9291   -1.8525   -2.4572 H         1 <0>         0.0278
     30 H10        -5.5715   -2.1858    1.4823 H         1 <0>         0.0278
     31 H11        -5.9367   -0.7134    0.5851 H         1 <0>         0.0278
     32 H12        -5.8456   -2.5801   -0.9920 H         1 <0>         0.0266
     33 H13        -4.2717   -3.0879   -0.3788 H         1 <0>         0.0266
     34 H14        -0.4288    2.6934    1.5379 H         1 <0>         0.0316
     35 H15        -0.0874    3.4102   -0.0108 H         1 <0>         0.0316
     36 H16        -3.4441    2.4544   -0.9351 H         1 <0>         0.0233
     37 H17        -2.1373    3.6220   -1.1070 H         1 <0>         0.0233
     38 H18        -2.8947    3.3777    0.4758 H         1 <0>         0.0233
     39 H19         0.7158    0.6064    2.2248 H         1 <0>         0.0620
     40 H20         1.5069    2.4765   -1.5749 H         1 <0>         0.0620
     41 H21         2.7457   -0.7367    1.9974 H         1 <0>         0.0621
     42 H22         3.5270    1.1653   -1.8222 H         1 <0>         0.0621
     43 H23         5.1245   -2.8340   -0.1971 H         1 <0>         0.0238
     44 H24         3.7532   -2.5540    0.8758 H         1 <0>         0.0238
     45 H25         3.5242   -2.4885   -0.8765 H         1 <0>         0.0238
     46 H26         5.1024   -0.7066    2.0757 H         1 <0>         0.0238
     47 H27         6.4554   -1.0108    0.9864 H         1 <0>         0.0238
     48 H28         5.7986    0.6276    1.1474 H         1 <0>         0.0238
     49 H29         6.2540   -1.0909   -1.4068 H         1 <0>         0.0238
     50 H30         4.7702   -0.6922   -2.2704 H         1 <0>         0.0238
     51 H31         5.6992    0.5818   -1.4435 H         1 <0>         0.0238
@<TRIPOS>BOND
     1    1    2 1
     2    1    4 1
     3    1    5 1
     4    2    3 1
     5    2   21 1
     6    2   22 1
     7    3    9 1
     8    3   10 1
     9    3   23 1
    10    4    6 1
    11    4   24 1
    12    4   25 1
    13    5    7 1
    14    5   26 1
    15    5   27 1
    16    6    8 1
    17    6   28 1
    18    6   29 1
    19    7    8 1
    20    7   30 1
    21    7   31 1
    22    8   32 1
    23    8   33 1
    24    9   11 1
    25    9   34 1
    26    9   35 1
    27   10   36 1
    28   10   37 1
    29   10   38 1
    30   11   14 ar
    31   11   15 ar
    32   12   13 1
    33   12   18 1
    34   12   19 1
    35   12   20 1
    36   13   16 ar
    37   13   17 ar
    38   14   16 ar
    39   14   39 1
    40   15   17 ar
    41   15   40 1
    42   16   41 1
    43   17   42 1
    44   18   43 1
    45   18   44 1
    46   18   45 1
    47   19   46 1
    48   19   47 1
    49   19   48 1
    50   20   49 1
    51   20   50 1
    52   20   51 1
