@<TRIPOS>MOLECULE
DB12615
   89    91     0     0     0
SMALL
USER_CHARGES

@<TRIPOS>ATOM
      1 O1          1.6012   -0.4178    0.4634 O.3       1 <0>        -0.3410
      2 O2         -1.0894   -1.4258    0.5149 O.3       1 <0>        -0.3328
      3 O3          3.7175   -0.6697    1.4457 O.3       1 <0>        -0.3459
      4 O4         -0.5913    1.3829    2.7692 O.3       1 <0>        -0.3865
      5 O5          3.0338   -2.3884   -0.8350 O.3       1 <0>        -0.3851
      6 O6          7.1037   -0.9132    0.0276 O.3       1 <0>        -0.3849
      7 O7         -2.7854   -2.8985    1.2444 O.3       1 <0>        -0.4653
      8 O8          1.2086    4.1621   -1.4483 O.2       1 <0>        -0.2730
      9 O9          0.7911    6.5745   -0.3731 O.3       1 <0>        -0.3825
     10 O10        -8.4603   -1.4067   -1.5218 O.3       1 <0>        -0.3938
     11 N1          0.4251    3.0460    0.4297 N.am      1 <0>        -0.3077
     12 N2         -2.4476    2.0123    0.5423 N.3       1 <0>        -0.3250
     13 N3          5.3579    0.3243   -1.6912 N.3       1 <0>        -0.3115
     14 N4          0.9236   -3.3233    1.4027 N.3       1 <0>        -0.3221
     15 N5         -5.0869   -2.4747   -0.5070 N.3       1 <0>        -0.3072
     16 N6         -3.3963    5.6921   -0.0473 N.3       1 <0>        -0.3299
     17 C1          1.0030    0.7341    1.0593 C.3       1 <0>         0.1083
     18 C2          0.6240    1.7058   -0.0690 C.3       1 <0>         0.0535
     19 C3         -0.1927    0.3054    1.9269 C.3       1 <0>         0.1107
     20 C4         -1.4014   -0.1595    1.0993 C.3       1 <0>         0.1061
     21 C5         -1.8021    0.8238   -0.0165 C.3       1 <0>         0.0358
     22 C6         -0.5880    1.2164   -0.8761 C.3       1 <0>        -0.0142
     23 C7          3.0039   -0.2369    0.2871 C.3       1 <0>         0.1870
     24 C8          4.9751   -0.9874   -1.1453 C.3       1 <0>         0.0692
     25 C9          3.4470   -1.0258   -0.9533 C.3       1 <0>         0.1239
     26 C10         5.7254   -1.2664    0.1872 C.3       1 <0>         0.1043
     27 C11         5.1217   -0.4398    1.3316 C.3       1 <0>         0.0808
     28 C12        -1.4137   -2.4971    1.4006 C.3       1 <0>         0.2172
     29 C13         5.7019   -2.7606    0.5494 C.3       1 <0>        -0.0323
     30 C14        -0.4714   -3.6873    1.1734 C.3       1 <0>         0.0717
     31 C15         0.7387    4.1715   -0.3124 C.2       1 <0>         0.2420
     32 C16        -0.6536   -4.2321   -0.2462 C.3       1 <0>        -0.0102
     33 C17         0.4116    5.4654    0.4246 C.3       1 <0>         0.1320
     34 C18         5.1099    0.3741   -3.1221 C.3       1 <0>        -0.0154
     35 C19        -3.0552   -3.6761    0.1323 C.2       1 <0>         0.1110
     36 C20        -2.1081   -4.2899   -0.5986 C.2       1 <0>        -0.0434
     37 C21        -1.0758    5.5824    0.7789 C.3       1 <0>        -0.0059
     38 C22        -4.5119   -3.7734   -0.1919 C.3       1 <0>         0.0539
     39 C23        -1.9978    5.5632   -0.4460 C.3       1 <0>        -0.0041
     40 C24        -6.5030   -2.5944   -0.8292 C.3       1 <0>         0.0195
     41 C25        -7.0858   -1.2399   -1.1994 C.3       1 <0>         0.0567
     42 H1          1.7257    1.2216    1.7303 H         1 <0>         0.0642
     43 H2          1.4526    1.7626   -0.7857 H         1 <0>         0.0525
     44 H3          0.1484   -0.5033    2.5831 H         1 <0>         0.0646
     45 H4         -2.2777   -0.2724    1.7546 H         1 <0>         0.0640
     46 H5         -2.5266    0.3289   -0.6760 H         1 <0>         0.0485
     47 H6         -0.2826    0.3341   -1.4550 H         1 <0>         0.0300
     48 H7         -0.8828    1.9713   -1.6170 H         1 <0>         0.0300
     49 H8          3.2351    0.8235    0.1189 H         1 <0>         0.0937
     50 H9          5.2895   -1.7662   -1.8544 H         1 <0>         0.0517
     51 H10         2.9025   -0.6434   -1.8227 H         1 <0>         0.0661
     52 H11         0.0155    3.1517    1.3527 H         1 <0>         0.1491
     53 H12         5.5862   -0.7117    2.2866 H         1 <0>         0.0590
     54 H13         5.3148    0.6326    1.2012 H         1 <0>         0.0590
     55 H14        -3.2776    1.7385    1.0665 H         1 <0>         0.1185
     56 H15        -2.7722    2.6122   -0.2145 H         1 <0>         0.1185
     57 H16        -1.3064   -2.1842    2.4471 H         1 <0>         0.1072
     58 H17        -1.3086    1.0603    3.3410 H         1 <0>         0.2100
     59 H18         6.0918   -3.3667   -0.2760 H         1 <0>         0.0258
     60 H19         4.7040   -3.1233    0.8076 H         1 <0>         0.0258
     61 H20         6.3559   -2.9591    1.4072 H         1 <0>         0.0258
     62 H21         6.3541    0.4744   -1.5311 H         1 <0>         0.1221
     63 H22        -0.7441   -4.4823    1.8811 H         1 <0>         0.0523
     64 H23         3.2843   -2.8440   -1.6568 H         1 <0>         0.2101
     65 H24         7.5463   -1.0314    0.8854 H         1 <0>         0.2103
     66 H25        -0.2170   -5.2353   -0.3171 H         1 <0>         0.0325
     67 H26        -0.1422   -3.6029   -0.9858 H         1 <0>         0.0325
     68 H27         1.0158    5.4882    1.3394 H         1 <0>         0.0690
     69 H28         5.4462    1.3427   -3.5068 H         1 <0>         0.0388
     70 H29         4.0493    0.2902   -3.3728 H         1 <0>         0.0388
     71 H30         5.6679   -0.3997   -3.6602 H         1 <0>         0.0388
     72 H31        -2.3820   -4.8686   -1.4759 H         1 <0>         0.0606
     73 H32         1.5168   -4.1443    1.2907 H         1 <0>         0.1187
     74 H33         1.0435   -3.0076    2.3641 H         1 <0>         0.1187
     75 H34        -1.3684    4.7864    1.4733 H         1 <0>         0.0307
     76 H35        -1.2305    6.5317    1.3091 H         1 <0>         0.0307
     77 H36        -5.0269   -4.2163    0.6704 H         1 <0>         0.0504
     78 H37        -4.6629   -4.4574   -1.0367 H         1 <0>         0.0504
     79 H38         0.7040    7.3735    0.1743 H         1 <0>         0.2104
     80 H39        -1.8733    4.6351   -1.0124 H         1 <0>         0.0423
     81 H40        -1.7501    6.3925   -1.1169 H         1 <0>         0.0423
     82 H41        -4.9757   -1.8468    0.2894 H         1 <0>         0.1224
     83 H42        -3.6541    4.9099    0.5531 H         1 <0>         0.1182
     84 H43        -3.9900    5.6259   -0.8730 H         1 <0>         0.1182
     85 H44        -7.0633   -3.0098    0.0181 H         1 <0>         0.0446
     86 H45        -6.6518   -3.2834   -1.6702 H         1 <0>         0.0446
     87 H46        -6.5750   -0.8158   -2.0704 H         1 <0>         0.0570
     88 H47        -7.0088   -0.5352   -0.3646 H         1 <0>         0.0570
     89 H48        -8.8071   -0.5285   -1.7543 H         1 <0>         0.2095
@<TRIPOS>BOND
     1    1   17 1
     2    1   23 1
     3    2   20 1
     4    2   28 1
     5    3   23 1
     6    3   27 1
     7    4   19 1
     8    4   58 1
     9    5   25 1
    10    5   64 1
    11    6   26 1
    12    6   65 1
    13    7   28 1
    14    7   35 1
    15    8   31 2
    16    9   33 1
    17    9   79 1
    18   10   41 1
    19   10   89 1
    20   11   18 1
    21   11   31 am
    22   11   52 1
    23   12   21 1
    24   12   55 1
    25   12   56 1
    26   13   24 1
    27   13   34 1
    28   13   62 1
    29   14   30 1
    30   14   73 1
    31   14   74 1
    32   15   38 1
    33   15   40 1
    34   15   82 1
    35   16   39 1
    36   16   83 1
    37   16   84 1
    38   17   18 1
    39   17   19 1
    40   17   42 1
    41   18   22 1
    42   18   43 1
    43   19   20 1
    44   19   44 1
    45   20   21 1
    46   20   45 1
    47   21   22 1
    48   21   46 1
    49   22   47 1
    50   22   48 1
    51   23   25 1
    52   23   49 1
    53   24   25 1
    54   24   26 1
    55   24   50 1
    56   25   51 1
    57   26   27 1
    58   26   29 1
    59   27   53 1
    60   27   54 1
    61   28   30 1
    62   28   57 1
    63   29   59 1
    64   29   60 1
    65   29   61 1
    66   30   32 1
    67   30   63 1
    68   31   33 1
    69   32   36 1
    70   32   66 1
    71   32   67 1
    72   33   37 1
    73   33   68 1
    74   34   69 1
    75   34   70 1
    76   34   71 1
    77   35   36 2
    78   35   38 1
    79   36   72 1
    80   37   39 1
    81   37   75 1
    82   37   76 1
    83   38   77 1
    84   38   78 1
    85   39   80 1
    86   39   81 1
    87   40   41 1
    88   40   85 1
    89   40   86 1
    90   41   87 1
    91   41   88 1
