@<TRIPOS>MOLECULE
DB12887
   86    90     0     0     0
SMALL
USER_CHARGES

@<TRIPOS>ATOM
      1 O1          1.0868   -6.3240   -1.4862 O.3       1 <0>        -0.3796
      2 O2         -9.7224    1.0506    0.6051 O.3       1 <0>        -0.3772
      3 O3          2.9031    1.9702    2.2127 O.2       1 <0>        -0.2702
      4 O4          4.2972    3.3728   -2.5064 O.2       1 <0>        -0.2675
      5 N1          0.9856   -2.8039    0.7383 N.pl3     1 <0>        -0.3267
      6 N2         -7.1376    1.7722   -0.3430 N.3       1 <0>        -0.2938
      7 N3          2.6888    2.8040    0.0575 N.am      1 <0>        -0.3070
      8 N4          6.4086    2.5723   -2.1055 N.am      1 <0>        -0.3262
      9 C1          0.8563   -3.6628   -0.4176 C.3       1 <0>         0.0277
     10 C2          2.2063   -4.2956   -0.7563 C.3       1 <0>        -0.0108
     11 C3         -0.1844   -4.7481   -0.1431 C.3       1 <0>        -0.0108
     12 C4         -0.2100   -5.7644   -1.2781 C.3       1 <0>         0.0493
     13 C5          2.0474   -5.3356   -1.8584 C.3       1 <0>         0.0493
     14 C6          0.6946   -1.4251    0.6392 C.ar      1 <0>         0.0342
     15 C7          1.4241   -3.3706    1.9969 C.3       1 <0>         0.0097
     16 C8          1.6694   -0.4668    0.9164 C.ar      1 <0>        -0.0173
     17 C9         -0.5868   -1.0268    0.2587 C.ar      1 <0>        -0.0326
     18 C10         0.3754   -3.1389    3.0678 C.3       1 <0>        -0.0494
     19 C11        -0.8935    0.3302    0.1553 C.ar      1 <0>        -0.0154
     20 C12         1.3627    0.8900    0.8132 C.ar      1 <0>         0.0419
     21 C13         0.0812    1.2885    0.4325 C.ar      1 <0>        -0.0415
     22 C14         3.0448   -0.8951    1.3242 C.3       1 <0>        -0.0372
     23 C15        -2.2227    0.7433   -0.2394 C.ar      1 <0>        -0.0178
     24 C16        -6.1553    1.9660   -1.4077 C.3       1 <0>         0.0242
     25 C17        -7.5688    0.3688   -0.2799 C.3       1 <0>         0.0228
     26 C18        -8.3010    2.6479   -0.5406 C.3       1 <0>         0.0228
     27 C19        -4.7854    1.5401   -1.0008 C.ar      1 <0>        -0.0333
     28 C20         2.3794    1.9339    1.1023 C.2       1 <0>         0.2447
     29 C21        -2.9822   -0.0655   -1.0848 C.ar      1 <0>        -0.0537
     30 C22        -2.7446    1.9505    0.2252 C.ar      1 <0>        -0.0537
     31 C23        -8.6023    0.1936    0.8291 C.3       1 <0>         0.0604
     32 C24        -9.3164    2.4194    0.5752 C.3       1 <0>         0.0604
     33 C25        -4.2635    0.3329   -1.4655 C.ar      1 <0>        -0.0568
     34 C26        -4.0258    2.3491   -0.1554 C.ar      1 <0>        -0.0568
     35 C27         3.6628    3.8437    0.1739 C.3       1 <0>         0.0425
     36 C28         5.0056    3.3042   -0.2253 C.2       1 <0>         0.0368
     37 C29         6.0246    2.9915    0.6044 C.2       1 <0>        -0.0390
     38 C30         5.1906    3.0921   -1.7090 C.2       1 <0>         0.2539
     39 C31         7.2654    2.4480    0.0741 C.2       1 <0>        -0.0393
     40 C32         7.4285    2.2535   -1.2416 C.2       1 <0>         0.0162
     41 C33         6.0225    3.1611    2.0984 C.3       1 <0>        -0.0392
     42 C34         8.6768    1.6993   -1.8500 C.3       1 <0>        -0.0244
     43 H1          0.5293   -3.0888   -1.2961 H         1 <0>         0.0501
     44 H2          2.9209   -3.5256   -1.0698 H         1 <0>         0.0305
     45 H3          2.6435   -4.7962    0.1144 H         1 <0>         0.0305
     46 H4          0.0360   -5.2942    0.7801 H         1 <0>         0.0305
     47 H5         -1.1792   -4.3055   -0.0167 H         1 <0>         0.0305
     48 H6          1.7451   -4.8713   -2.8045 H         1 <0>         0.0560
     49 H7         -0.8917   -6.5841   -1.0299 H         1 <0>         0.0560
     50 H8         -0.5653   -5.3108   -2.2110 H         1 <0>         0.0560
     51 H9          3.0010   -5.8448   -2.0311 H         1 <0>         0.0560
     52 H10         1.5743   -4.4533    1.9298 H         1 <0>         0.0461
     53 H11         2.3875   -2.9979    2.3436 H         1 <0>         0.0461
     54 H12        -1.3375   -1.7939    0.0869 H         1 <0>         0.0642
     55 H13         0.2673   -2.0769    3.3110 H         1 <0>         0.0245
     56 H14        -0.6046   -3.5172    2.7574 H         1 <0>         0.0245
     57 H15         0.6586   -3.6576    3.9897 H         1 <0>         0.0245
     58 H16        -0.1199    2.3526    0.3360 H         1 <0>         0.0631
     59 H17         3.1204   -0.9745    2.4127 H         1 <0>         0.0278
     60 H18         3.3572   -1.8265    0.8429 H         1 <0>         0.0278
     61 H19         3.8012   -0.1750    0.9912 H         1 <0>         0.0278
     62 H20        -6.0855    3.0325   -1.6666 H         1 <0>         0.0476
     63 H21        -6.4652    1.4742   -2.3401 H         1 <0>         0.0476
     64 H22        -6.7247   -0.2948   -0.0652 H         1 <0>         0.0449
     65 H23        -8.0100    0.0605   -1.2369 H         1 <0>         0.0449
     66 H24        -8.7704    2.4419   -1.5115 H         1 <0>         0.0449
     67 H25        -7.9947    3.7002   -0.5265 H         1 <0>         0.0449
     68 H26        -2.6064   -0.9981   -1.4968 H         1 <0>         0.0624
     69 H27        -2.2039    2.5978    0.9102 H         1 <0>         0.0624
     70 H28       -10.2091    3.0273    0.3970 H         1 <0>         0.0572
     71 H29        -8.9122    2.7029    1.5547 H         1 <0>         0.0572
     72 H30        -8.1743    0.4010    1.8175 H         1 <0>         0.0572
     73 H31        -8.9693   -0.8377    0.8371 H         1 <0>         0.0572
     74 H32        -4.8423   -0.3037   -2.1297 H         1 <0>         0.0621
     75 H33        -4.4243    3.2885    0.2189 H         1 <0>         0.0621
     76 H34         2.2230    2.6847   -0.8377 H         1 <0>         0.1493
     77 H35         3.3622    4.6648   -0.4863 H         1 <0>         0.0513
     78 H36         3.6445    4.2457    1.1893 H         1 <0>         0.0513
     79 H37         8.0595    2.2020    0.7727 H         1 <0>         0.0637
     80 H38         6.5640    2.4155   -3.0974 H         1 <0>         0.1686
     81 H39         6.8594    3.7960    2.4112 H         1 <0>         0.0278
     82 H40         6.1284    2.1874    2.5901 H         1 <0>         0.0278
     83 H41         5.1148    3.6225    2.4904 H         1 <0>         0.0278
     84 H42         9.1113    2.4174   -2.5534 H         1 <0>         0.0292
     85 H43         9.4351    1.4739   -1.0927 H         1 <0>         0.0292
     86 H44         8.4600    0.7722   -2.3909 H         1 <0>         0.0292
@<TRIPOS>BOND
     1    1   12 1
     2    1   13 1
     3    2   31 1
     4    2   32 1
     5    3   28 2
     6    4   38 2
     7    5    9 1
     8    5   14 1
     9    5   15 1
    10    6   24 1
    11    6   25 1
    12    6   26 1
    13    7   28 am
    14    7   35 1
    15    7   76 1
    16    8   38 am
    17    8   40 1
    18    8   80 1
    19    9   10 1
    20    9   11 1
    21    9   43 1
    22   10   13 1
    23   10   44 1
    24   10   45 1
    25   11   12 1
    26   11   46 1
    27   11   47 1
    28   12   49 1
    29   12   50 1
    30   13   48 1
    31   13   51 1
    32   14   16 ar
    33   14   17 ar
    34   15   18 1
    35   15   52 1
    36   15   53 1
    37   16   20 ar
    38   16   22 1
    39   17   19 ar
    40   17   54 1
    41   18   55 1
    42   18   56 1
    43   18   57 1
    44   19   21 ar
    45   19   23 1
    46   20   21 ar
    47   20   28 1
    48   21   58 1
    49   22   59 1
    50   22   60 1
    51   22   61 1
    52   23   29 ar
    53   23   30 ar
    54   24   27 1
    55   24   62 1
    56   24   63 1
    57   25   31 1
    58   25   64 1
    59   25   65 1
    60   26   32 1
    61   26   66 1
    62   26   67 1
    63   27   33 ar
    64   27   34 ar
    65   29   33 ar
    66   29   68 1
    67   30   34 ar
    68   30   69 1
    69   31   72 1
    70   31   73 1
    71   32   70 1
    72   32   71 1
    73   33   74 1
    74   34   75 1
    75   35   36 1
    76   35   77 1
    77   35   78 1
    78   36   37 2
    79   36   38 1
    80   37   39 1
    81   37   41 1
    82   39   40 2
    83   39   79 1
    84   40   42 1
    85   41   81 1
    86   41   82 1
    87   41   83 1
    88   42   84 1
    89   42   85 1
    90   42   86 1
