@<TRIPOS>MOLECULE
DB12713
   53    55     0     0     0
SMALL
USER_CHARGES

@<TRIPOS>ATOM
      1 Cl1        -1.6097    4.0826    1.1232 Cl        1 <0>        -0.0832
      2 S1          5.8321   -0.0028   -1.7321 S.3       1 <0>        -0.1305
      3 O1          3.6178    0.2769   -0.2640 O.3       1 <0>        -0.3530
      4 O2          1.4837   -1.8344    1.8454 O.3       1 <0>        -0.3862
      5 O3          2.7661   -3.7336    0.0776 O.3       1 <0>        -0.3864
      6 O4          5.4471   -2.8968   -0.5788 O.3       1 <0>        -0.3857
      7 O5         -5.7689   -1.1344   -0.7908 O.3       1 <0>        -0.4922
      8 C1          2.2092   -1.4780    0.6690 C.3       1 <0>         0.1137
      9 C2          3.3420   -2.4845    0.4655 C.3       1 <0>         0.1128
     10 C3          2.7664   -0.0579    0.8355 C.3       1 <0>         0.1135
     11 C4          4.3198   -2.0233   -0.6174 C.3       1 <0>         0.1189
     12 C5          4.7562   -0.5763   -0.3691 C.3       1 <0>         0.1331
     13 C6          1.6638    0.9806    0.8985 C.ar      1 <0>        -0.0159
     14 C7          0.7653    1.1092   -0.1607 C.ar      1 <0>        -0.0512
     15 C8          1.5472    1.8070    2.0162 C.ar      1 <0>        -0.0546
     16 C9         -0.2500    2.0639   -0.1019 C.ar      1 <0>        -0.0244
     17 C10         0.5322    2.7616    2.0750 C.ar      1 <0>        -0.0428
     18 C11        -1.1920    2.1710   -1.2576 C.3       1 <0>        -0.0010
     19 C12        -0.3666    2.8901    1.0158 C.ar      1 <0>         0.0445
     20 C13         6.1368    1.6690   -1.1223 C.3       1 <0>        -0.0156
     21 C14        -2.4152    1.2872   -1.1331 C.ar      1 <0>        -0.0428
     22 C15        -2.3236   -0.0755   -1.4172 C.ar      1 <0>        -0.0548
     23 C16        -3.6338    1.8360   -0.7342 C.ar      1 <0>        -0.0548
     24 C17        -3.4507   -0.8891   -1.3023 C.ar      1 <0>        -0.0197
     25 C18        -4.7610    1.0224   -0.6192 C.ar      1 <0>        -0.0197
     26 C19        -4.6693   -0.3401   -0.9033 C.ar      1 <0>         0.1205
     27 C20        -6.7441   -0.7593    0.1809 C.3       1 <0>         0.0868
     28 C21        -7.4463   -2.0039    0.6806 C.3       1 <0>        -0.0307
     29 H1          1.5128   -1.5498   -0.1740 H         1 <0>         0.0649
     30 H2          3.8671   -2.6740    1.4093 H         1 <0>         0.0647
     31 H3          3.3569    0.0028    1.7602 H         1 <0>         0.0674
     32 H4          3.8471   -2.1306   -1.6017 H         1 <0>         0.0655
     33 H5          5.3516   -0.5104    0.5501 H         1 <0>         0.0740
     34 H6          0.8653    0.4784   -1.0402 H         1 <0>         0.0624
     35 H7          2.0904   -1.7760    2.6031 H         1 <0>         0.2100
     36 H8          2.3034   -3.6039   -0.7679 H         1 <0>         0.2100
     37 H9          2.2392    1.7185    2.8494 H         1 <0>         0.0622
     38 H10         5.8898   -2.7795    0.2790 H         1 <0>         0.2100
     39 H11         0.4546    3.3978    2.9531 H         1 <0>         0.0632
     40 H12        -0.6671    1.8988   -2.1852 H         1 <0>         0.0362
     41 H13        -1.4882    3.2109   -1.4432 H         1 <0>         0.0362
     42 H14         5.2125    2.2521   -1.1082 H         1 <0>         0.0341
     43 H15         6.5708    1.6397   -0.1194 H         1 <0>         0.0341
     44 H16         6.8451    2.1685   -1.7889 H         1 <0>         0.0341
     45 H17        -1.3833   -0.5174   -1.7348 H         1 <0>         0.0622
     46 H18        -3.7315    2.8981   -0.5320 H         1 <0>         0.0622
     47 H19        -3.3736   -1.9497   -1.5258 H         1 <0>         0.0654
     48 H20        -5.6970    1.4949   -0.3363 H         1 <0>         0.0654
     49 H21        -7.4720   -0.0837   -0.2820 H         1 <0>         0.0694
     50 H22        -6.2874   -0.2682    1.0493 H         1 <0>         0.0694
     51 H23        -7.9217   -2.5377   -0.1489 H         1 <0>         0.0262
     52 H24        -6.7288   -2.6957    1.1342 H         1 <0>         0.0262
     53 H25        -8.2104   -1.7518    1.4215 H         1 <0>         0.0262
@<TRIPOS>BOND
     1    1   19 1
     2    2   12 1
     3    2   20 1
     4    3   10 1
     5    3   12 1
     6    4    8 1
     7    4   35 1
     8    5    9 1
     9    5   36 1
    10    6   11 1
    11    6   38 1
    12    7   26 1
    13    7   27 1
    14    8    9 1
    15    8   10 1
    16    8   29 1
    17    9   11 1
    18    9   30 1
    19   10   13 1
    20   10   31 1
    21   11   12 1
    22   11   32 1
    23   12   33 1
    24   13   14 ar
    25   13   15 ar
    26   14   16 ar
    27   14   34 1
    28   15   17 ar
    29   15   37 1
    30   16   18 1
    31   16   19 ar
    32   17   19 ar
    33   17   39 1
    34   18   21 1
    35   18   40 1
    36   18   41 1
    37   20   42 1
    38   20   43 1
    39   20   44 1
    40   21   22 ar
    41   21   23 ar
    42   22   24 ar
    43   22   45 1
    44   23   25 ar
    45   23   46 1
    46   24   26 ar
    47   24   47 1
    48   25   26 ar
    49   25   48 1
    50   27   28 1
    51   27   49 1
    52   27   50 1
    53   28   51 1
    54   28   52 1
    55   28   53 1
