@<TRIPOS>MOLECULE
DB12362
   40    39     0     0     0
SMALL
USER_CHARGES

@<TRIPOS>ATOM
      1 O1         -0.4906    0.7549    2.4424 O.3       1 <0>        -0.3893
      2 O2          3.5028   -3.0548   -0.9265 O.3       1 <0>        -0.4797
      3 O3          4.3572    2.1567    0.8293 O.3       1 <0>        -0.4797
      4 O4         -4.1965   -2.6817   -0.0021 O.3       1 <0>        -0.4797
      5 O5         -2.3914    2.7102   -2.0693 O.3       1 <0>        -0.4797
      6 O6          2.1600   -1.9491   -2.3926 O.2       1 <0>        -0.2496
      7 O7          3.1023    2.4449   -1.0462 O.2       1 <0>        -0.2496
      8 O8         -4.6734   -0.7802    1.1521 O.2       1 <0>        -0.2496
      9 O9         -3.1039    3.1039    0.0550 O.2       1 <0>        -0.2496
     10 N1          2.0738   -0.1426   -0.0551 N.3       1 <0>        -0.2799
     11 N2         -2.2646    0.2771    0.2410 N.3       1 <0>        -0.2799
     12 C1         -0.0220    0.1301    1.2453 C.3       1 <0>         0.0806
     13 C2          1.4627    0.4832    1.1096 C.3       1 <0>         0.0272
     14 C3         -0.8568    0.6238    0.0579 C.3       1 <0>         0.0272
     15 C4          1.9240   -1.5984    0.0020 C.3       1 <0>         0.0973
     16 C5          3.4901    0.2172   -0.1518 C.3       1 <0>         0.0973
     17 C6         -2.4314   -1.1750    0.2977 C.3       1 <0>         0.0973
     18 C7         -3.0758    0.8421   -0.8373 C.3       1 <0>         0.0973
     19 C8          2.5061   -2.1891   -1.2455 C.2       1 <0>         0.3190
     20 C9          3.6024    1.7100   -0.2079 C.2       1 <0>         0.3190
     21 C10        -3.8759   -1.4820    0.5482 C.2       1 <0>         0.3190
     22 C11        -2.8759    2.3265   -0.8598 C.2       1 <0>         0.3190
     23 H1         -0.1083   -0.9394    1.4329 H         1 <0>         0.0619
     24 H2          1.5248    1.5779    1.0685 H         1 <0>         0.0452
     25 H3          1.9834    0.1950    2.0344 H         1 <0>         0.0452
     26 H4         -0.4767    0.2101   -0.8846 H         1 <0>         0.0452
     27 H5         -0.7223    1.7108    0.0185 H         1 <0>         0.0452
     28 H6          0.8821   -1.9323   -0.0100 H         1 <0>         0.0542
     29 H7          2.4019   -2.0242    0.8932 H         1 <0>         0.0542
     30 H8          3.9648   -0.1520   -1.0678 H         1 <0>         0.0542
     31 H9          4.0645   -0.1753    0.6972 H         1 <0>         0.0542
     32 H10        -1.9109   -1.6446    1.1355 H         1 <0>         0.0542
     33 H11        -2.1044   -1.6473   -0.6369 H         1 <0>         0.0542
     34 H12        -4.1531    0.6935   -0.7146 H         1 <0>         0.0542
     35 H13        -2.8009    0.4115   -1.8092 H         1 <0>         0.0542
     36 H14        -1.4359    0.5444    2.5301 H         1 <0>         0.2099
     37 H15         3.9062   -3.4579   -1.7246 H         1 <0>         0.2951
     38 H16         4.4480    3.1334    0.8210 H         1 <0>         0.2951
     39 H17        -5.1389   -2.9110    0.1448 H         1 <0>         0.2951
     40 H18        -2.2478    3.6795   -2.1147 H         1 <0>         0.2951
@<TRIPOS>BOND
     1    1   12 1
     2    1   36 1
     3    2   19 1
     4    2   37 1
     5    3   20 1
     6    3   38 1
     7    4   21 1
     8    4   39 1
     9    5   22 1
    10    5   40 1
    11    6   19 2
    12    7   20 2
    13    8   21 2
    14    9   22 2
    15   10   13 1
    16   10   15 1
    17   10   16 1
    18   11   14 1
    19   11   17 1
    20   11   18 1
    21   12   13 1
    22   12   14 1
    23   12   23 1
    24   13   24 1
    25   13   25 1
    26   14   26 1
    27   14   27 1
    28   15   19 1
    29   15   28 1
    30   15   29 1
    31   16   20 1
    32   16   30 1
    33   16   31 1
    34   17   21 1
    35   17   32 1
    36   17   33 1
    37   18   22 1
    38   18   34 1
    39   18   35 1
