@<TRIPOS>MOLECULE
DB12364
   54    56     0     0     0
SMALL
USER_CHARGES

@<TRIPOS>ATOM
      1 Cl1         0.2006   -7.3207   -0.3965 Cl        1 <0>        -0.0820
      2 O1         -6.7763    1.1905    0.4596 O.3       1 <0>        -0.4951
      3 O2         -0.8178    3.3810   -0.7377 O.2       1 <0>        -0.2699
      4 O3         -2.2184   -1.4484    1.9148 O.2       1 <0>        -0.2697
      5 N1         -1.2528    1.1754   -0.0658 N.am      1 <0>        -0.2808
      6 N2          5.8429    0.6793    0.3917 N.pl3     1 <0>        -0.2260
      7 N3         -2.4107   -2.0940   -0.3327 N.am      1 <0>        -0.2663
      8 N4          5.6636    1.1865   -1.9437 N.2       1 <0>        -0.0992
      9 N5         -1.7171   -4.0160   -1.5233 N.ar      1 <0>        -0.2387
     10 C1         -2.6626    1.1612    0.0730 C.ar      1 <0>         0.0461
     11 C2         -3.3152    0.0044    0.4665 C.ar      1 <0>         0.0617
     12 C3          0.9968    1.9406   -0.5281 C.ar      1 <0>         0.0371
     13 C4          3.6886    1.3745   -0.6758 C.ar      1 <0>         0.0650
     14 C5         -0.4242    2.2393   -0.4489 C.2       1 <0>         0.2483
     15 C6         -3.3609    2.3280   -0.1940 C.ar      1 <0>        -0.0363
     16 C7         -4.7039    0.0141    0.5969 C.ar      1 <0>        -0.0060
     17 C8          1.9343    2.9557   -0.3387 C.ar      1 <0>        -0.0488
     18 C9          1.4222    0.6387   -0.7923 C.ar      1 <0>        -0.0488
     19 C10        -5.4212    1.1807    0.3320 C.ar      1 <0>         0.1209
     20 C11         3.2974    2.6691   -0.4135 C.ar      1 <0>        -0.0462
     21 C12         2.7854    0.3520   -0.8671 C.ar      1 <0>        -0.0462
     22 C13         5.1436    1.0687   -0.7559 C.2       1 <0>         0.3118
     23 C14        -4.7497    2.3377   -0.0635 C.ar      1 <0>        -0.0182
     24 C15        -2.5955   -1.2301    0.7539 C.2       1 <0>         0.2512
     25 C16         7.2850    0.4508    0.3630 C.3       1 <0>         0.0693
     26 C17         5.2198    0.5488    1.7064 C.3       1 <0>         0.0693
     27 C18        -1.7771   -3.3608   -0.3513 C.ar      1 <0>         0.1252
     28 C19        -1.2713   -3.8216    0.8449 C.ar      1 <0>        -0.0201
     29 C20        -7.4465    2.4170    0.1735 C.3       1 <0>         0.0788
     30 C21        -0.6487   -5.0649    0.8371 C.ar      1 <0>        -0.0387
     31 C22        -1.1048   -5.2209   -1.4919 C.ar      1 <0>         0.0480
     32 C23        -0.5596   -5.7843   -0.3494 C.ar      1 <0>         0.0592
     33 H1         -0.8056    0.3002    0.1887 H         1 <0>         0.1552
     34 H2         -2.9233    3.2642   -0.5038 H         1 <0>         0.0637
     35 H3         -5.2336   -0.8842    0.9054 H         1 <0>         0.0662
     36 H4          1.6244    3.9757   -0.1262 H         1 <0>         0.0625
     37 H5          0.7315   -0.1770   -0.9851 H         1 <0>         0.0625
     38 H6          4.0237    3.4623   -0.2635 H         1 <0>         0.0626
     39 H7          3.1123   -0.6613   -1.0806 H         1 <0>         0.0626
     40 H8         -5.2458    3.2767   -0.2845 H         1 <0>         0.0655
     41 H9         -2.7714   -1.7979   -1.2368 H         1 <0>         0.1566
     42 H10         7.6976    0.2228    1.3512 H         1 <0>         0.0689
     43 H11         7.8030    1.3428   -0.0050 H         1 <0>         0.0689
     44 H12         7.5197   -0.3927   -0.2946 H         1 <0>         0.0689
     45 H13         4.9698    1.5377    2.1037 H         1 <0>         0.0689
     46 H14         4.3064   -0.0515    1.6479 H         1 <0>         0.0689
     47 H15         5.8729    0.0512    2.4310 H         1 <0>         0.0689
     48 H16         6.6599    0.9552   -1.9243 H         1 <0>         0.3633
     49 H17        -1.3003   -3.3270    1.8005 H         1 <0>         0.0652
     50 H18        -8.5168    2.2437    0.3261 H         1 <0>         0.0660
     51 H19        -7.1490    3.2099    0.8681 H         1 <0>         0.0660
     52 H20        -7.3167    2.7119   -0.8734 H         1 <0>         0.0660
     53 H21        -0.2369   -5.4626    1.7611 H         1 <0>         0.0634
     54 H22        -1.0677   -5.7323   -2.4490 H         1 <0>         0.0845
@<TRIPOS>BOND
     1    1   32 1
     2    2   19 1
     3    2   29 1
     4    3   14 2
     5    4   24 2
     6    5   10 1
     7    5   14 am
     8    5   33 1
     9    6   22 1
    10    6   25 1
    11    6   26 1
    12    7   24 am
    13    7   27 1
    14    7   41 1
    15    8   22 2
    16    8   48 1
    17    9   27 ar
    18    9   31 ar
    19   10   11 ar
    20   10   15 ar
    21   11   16 ar
    22   11   24 1
    23   12   14 1
    24   12   17 ar
    25   12   18 ar
    26   13   20 ar
    27   13   21 ar
    28   13   22 1
    29   15   23 ar
    30   15   34 1
    31   16   19 ar
    32   16   35 1
    33   17   20 ar
    34   17   36 1
    35   18   21 ar
    36   18   37 1
    37   19   23 ar
    38   20   38 1
    39   21   39 1
    40   23   40 1
    41   25   42 1
    42   25   43 1
    43   25   44 1
    44   26   45 1
    45   26   46 1
    46   26   47 1
    47   27   28 ar
    48   28   30 ar
    49   28   49 1
    50   29   50 1
    51   29   51 1
    52   29   52 1
    53   30   32 ar
    54   30   53 1
    55   31   32 ar
    56   31   54 1
