@<TRIPOS>MOLECULE
DB12789
   59    59     0     0     0
SMALL
USER_CHARGES

@<TRIPOS>ATOM
      1 O1         -4.0767    0.0139    2.3231 O.3       1 <0>        -0.3914
      2 O2         -4.3239    2.7552    0.0429 O.3       1 <0>        -0.3911
      3 O3          0.6116    4.4826   -1.4845 O.3       1 <0>        -0.3878
      4 O4          1.9330   -1.8179   -3.3746 O.3       1 <0>        -0.4806
      5 O5         -0.1522   -1.2656   -2.6713 O.2       1 <0>        -0.2510
      6 C1         -2.3829   -0.2023    0.5551 C.3       1 <0>        -0.0029
      7 C2         -2.3838    1.3036    0.2380 C.3       1 <0>         0.0087
      8 C3         -3.8279   -0.4471    1.0005 C.3       1 <0>         0.0613
      9 C4         -3.7564    1.5367   -0.4218 C.3       1 <0>         0.0641
     10 C5         -4.6511    0.3585   -0.0040 C.3       1 <0>         0.0001
     11 C6         -1.3475   -0.6012    1.6000 C.3       1 <0>        -0.0290
     12 C7         -1.2545    1.7331   -0.6384 C.2       1 <0>        -0.0796
     13 C8         -1.3178   -2.0482    2.0063 C.2       1 <0>        -0.0876
     14 C9         -0.3552    2.6663   -0.2936 C.2       1 <0>        -0.0595
     15 C10         0.7797    3.0967   -1.1800 C.3       1 <0>         0.0734
     16 C11        -0.6346   -3.0423    1.4188 C.2       1 <0>        -0.0879
     17 C12         2.1525    2.9354   -0.5132 C.3       1 <0>        -0.0232
     18 C13         2.4308    1.5047   -0.0425 C.3       1 <0>        -0.0504
     19 C14         0.2410   -2.8510    0.2147 C.3       1 <0>        -0.0343
     20 C15         3.7664    1.3567    0.6939 C.3       1 <0>        -0.0532
     21 C16        -0.1966   -3.6765   -1.0031 C.3       1 <0>        -0.0395
     22 C17         4.0803   -0.0829    1.1032 C.3       1 <0>        -0.0559
     23 C18         0.7047   -3.5016   -2.2291 C.3       1 <0>         0.0451
     24 C19         5.4090   -0.1727    1.8385 C.3       1 <0>        -0.0653
     25 C20         0.7549   -2.0823   -2.7516 C.2       1 <0>         0.3047
     26 H1         -2.2004   -0.7697   -0.3694 H         1 <0>         0.0335
     27 H2         -2.3463    1.8706    1.1797 H         1 <0>         0.0372
     28 H3         -4.0871   -1.5105    0.9642 H         1 <0>         0.0597
     29 H4         -3.6933    1.5941   -1.5150 H         1 <0>         0.0600
     30 H5         -4.8396   -0.2645   -0.8867 H         1 <0>         0.0315
     31 H6         -5.6131    0.6822    0.4062 H         1 <0>         0.0315
     32 H7         -1.4977   -0.0135    2.5161 H         1 <0>         0.0311
     33 H8         -0.3505   -0.2972    1.2608 H         1 <0>         0.0311
     34 H9         -1.1677    1.2502   -1.6089 H         1 <0>         0.0573
     35 H10        -5.0183   -0.1373    2.5127 H         1 <0>         0.2098
     36 H11        -5.1942    2.8523   -0.3800 H         1 <0>         0.2098
     37 H12        -1.9328   -2.3070    2.8663 H         1 <0>         0.0569
     38 H13        -0.4384    3.1571    0.6732 H         1 <0>         0.0594
     39 H14         0.7745    2.5469   -2.1288 H         1 <0>         0.0637
     40 H15        -0.7124   -4.0461    1.8278 H         1 <0>         0.0569
     41 H16         2.2278    3.6232    0.3399 H         1 <0>         0.0293
     42 H17         2.9329    3.2562   -1.2153 H         1 <0>         0.0293
     43 H18         2.4184    0.8338   -0.9106 H         1 <0>         0.0266
     44 H19         1.6378    1.1647    0.6325 H         1 <0>         0.0266
     45 H20         1.2579   -3.1537    0.4955 H         1 <0>         0.0307
     46 H21         0.3146   -1.7993   -0.0723 H         1 <0>         0.0307
     47 H22         3.7543    1.9944    1.5865 H         1 <0>         0.0265
     48 H23         4.5721    1.7301    0.0494 H         1 <0>         0.0265
     49 H24        -0.2361    4.5811   -1.9514 H         1 <0>         0.2102
     50 H25        -1.2247   -3.4004   -1.2709 H         1 <0>         0.0273
     51 H26        -0.2166   -4.7401   -0.7341 H         1 <0>         0.0273
     52 H27         3.2823   -0.4670    1.7492 H         1 <0>         0.0263
     53 H28         4.1140   -0.7225    0.2138 H         1 <0>         0.0263
     54 H29         0.3547   -4.1438   -3.0443 H         1 <0>         0.0378
     55 H30         1.7221   -3.8127   -1.9641 H         1 <0>         0.0378
     56 H31         6.2316    0.1766    1.2063 H         1 <0>         0.0230
     57 H32         5.3946    0.4328    2.7504 H         1 <0>         0.0230
     58 H33         5.6152   -1.2094    2.1223 H         1 <0>         0.0230
     59 H34         1.9617   -0.9034   -3.7282 H         1 <0>         0.2951
@<TRIPOS>BOND
     1    1    8 1
     2    1   35 1
     3    2    9 1
     4    2   36 1
     5    3   15 1
     6    3   49 1
     7    4   25 1
     8    4   59 1
     9    5   25 2
    10    6    7 1
    11    6    8 1
    12    6   11 1
    13    6   26 1
    14    7    9 1
    15    7   12 1
    16    7   27 1
    17    8   10 1
    18    8   28 1
    19    9   10 1
    20    9   29 1
    21   10   30 1
    22   10   31 1
    23   11   13 1
    24   11   32 1
    25   11   33 1
    26   12   14 2
    27   12   34 1
    28   13   16 2
    29   13   37 1
    30   14   15 1
    31   14   38 1
    32   15   17 1
    33   15   39 1
    34   16   19 1
    35   16   40 1
    36   17   18 1
    37   17   41 1
    38   17   42 1
    39   18   20 1
    40   18   43 1
    41   18   44 1
    42   19   21 1
    43   19   45 1
    44   19   46 1
    45   20   22 1
    46   20   47 1
    47   20   48 1
    48   21   23 1
    49   21   50 1
    50   21   51 1
    51   22   24 1
    52   22   52 1
    53   22   53 1
    54   23   25 1
    55   23   54 1
    56   23   55 1
    57   24   56 1
    58   24   57 1
    59   24   58 1
