@<TRIPOS>MOLECULE
DB12235
   46    49     0     0     0
SMALL
USER_CHARGES

@<TRIPOS>ATOM
      1 O1         -4.3219    1.7578   -0.1729 O.3       1 <0>        -0.3886
      2 O2         -2.4834   -2.6184    0.5069 O.3       1 <0>        -0.3888
      3 O3         -4.6353   -1.1728    1.0310 O.3       1 <0>        -0.3866
      4 O4          6.4711   -0.2216   -0.4247 O.3       1 <0>        -0.5068
      5 C1         -1.9813    0.9562   -0.1017 C.3       1 <0>         0.0019
      6 C2         -1.4342   -0.4271    0.3141 C.3       1 <0>        -0.0012
      7 C3          0.0275   -0.6121   -0.1149 C.3       1 <0>        -0.0281
      8 C4          0.8962    0.4698    0.6006 C.3       1 <0>        -0.0124
      9 C5         -3.4317    0.8142    0.3970 C.3       1 <0>         0.0892
     10 C6         -2.5060   -1.3938   -0.2026 C.3       1 <0>         0.0871
     11 C7         -1.1639    2.0322    0.6230 C.3       1 <0>        -0.0443
     12 C8         -3.8336   -0.6224   -0.0050 C.3       1 <0>         0.1076
     13 C9          0.3427    1.8959    0.3392 C.3       1 <0>        -0.0454
     14 C10         0.5854   -1.9971    0.2188 C.3       1 <0>        -0.0453
     15 C11        -1.9597    1.2365   -1.6260 C.3       1 <0>        -0.0568
     16 C12         2.3808    0.2934    0.2919 C.ar      1 <0>        -0.0406
     17 C13         1.9892   -2.1483   -0.3598 C.3       1 <0>        -0.0270
     18 C14         2.8847   -0.9590   -0.1200 C.ar      1 <0>        -0.0405
     19 C15         3.2959    1.3421    0.4952 C.ar      1 <0>        -0.0546
     20 C16         4.2601   -1.1142   -0.3690 C.ar      1 <0>        -0.0167
     21 C17         4.6610    1.1722    0.2533 C.ar      1 <0>        -0.0199
     22 C18         5.1429   -0.0545   -0.1840 C.ar      1 <0>         0.1171
     23 H1         -1.4424   -0.5022    1.4146 H         1 <0>         0.0335
     24 H2          0.1069   -0.4842   -1.2021 H         1 <0>         0.0310
     25 H3          0.8105    0.2979    1.6849 H         1 <0>         0.0352
     26 H4         -3.4869    0.9365    1.4858 H         1 <0>         0.0625
     27 H5         -2.3468   -1.6097   -1.2646 H         1 <0>         0.0623
     28 H6         -1.3191    1.9527    1.7070 H         1 <0>         0.0272
     29 H7         -1.5036    3.0351    0.3376 H         1 <0>         0.0272
     30 H8         -4.4269   -0.6391   -0.9259 H         1 <0>         0.0645
     31 H9          0.5580    2.1935   -0.6941 H         1 <0>         0.0271
     32 H10         0.8540    2.6249    0.9784 H         1 <0>         0.0271
     33 H11        -0.0425   -2.7910   -0.1982 H         1 <0>         0.0271
     34 H12         0.6095   -2.1417    1.3065 H         1 <0>         0.0271
     35 H13        -0.9513    1.2036   -2.0471 H         1 <0>         0.0236
     36 H14        -2.5635    0.5216   -2.1936 H         1 <0>         0.0236
     37 H15        -2.3542    2.2365   -1.8411 H         1 <0>         0.0236
     38 H16         1.9141   -2.2987   -1.4444 H         1 <0>         0.0313
     39 H17         2.4468   -3.0498    0.0656 H         1 <0>         0.0313
     40 H18        -4.4504    1.5442   -1.1119 H         1 <0>         0.2099
     41 H19        -2.6530   -2.4256    1.4446 H         1 <0>         0.2099
     42 H20        -4.8242   -2.0958    0.7903 H         1 <0>         0.2100
     43 H21         2.9678    2.3131    0.8540 H         1 <0>         0.0622
     44 H22         4.6428   -2.0746   -0.7086 H         1 <0>         0.0657
     45 H23         5.3358    2.0085    0.4156 H         1 <0>         0.0654
     46 H24         6.9322    0.6154   -0.2435 H         1 <0>         0.2921
@<TRIPOS>BOND
     1    1    9 1
     2    1   40 1
     3    2   10 1
     4    2   41 1
     5    3   12 1
     6    3   42 1
     7    4   22 1
     8    4   46 1
     9    5    6 1
    10    5    9 1
    11    5   11 1
    12    5   15 1
    13    6    7 1
    14    6   10 1
    15    6   23 1
    16    7    8 1
    17    7   14 1
    18    7   24 1
    19    8   13 1
    20    8   16 1
    21    8   25 1
    22    9   12 1
    23    9   26 1
    24   10   12 1
    25   10   27 1
    26   11   13 1
    27   11   28 1
    28   11   29 1
    29   12   30 1
    30   13   31 1
    31   13   32 1
    32   14   17 1
    33   14   33 1
    34   14   34 1
    35   15   35 1
    36   15   36 1
    37   15   37 1
    38   16   18 ar
    39   16   19 ar
    40   17   18 1
    41   17   38 1
    42   17   39 1
    43   18   20 ar
    44   19   21 ar
    45   19   43 1
    46   20   22 ar
    47   20   44 1
    48   21   22 ar
    49   21   45 1
