@<TRIPOS>MOLECULE
DB12371
   72    75     0     0     0
SMALL
USER_CHARGES

@<TRIPOS>ATOM
      1 F1          4.4102   -1.5101   -3.1991 F         1 <0>        -0.1659
      2 F2          5.9342    0.0302   -3.0174 F         1 <0>        -0.1659
      3 F3          6.3903   -2.0143   -2.4555 F         1 <0>        -0.1659
      4 O1        -10.9161    0.4744   -2.5687 O.3       1 <0>        -0.4804
      5 O2         -9.2094   -1.0089   -2.4409 O.2       1 <0>        -0.2506
      6 O3          0.9219    0.0765    0.3997 O.3       1 <0>        -0.3888
      7 N1         -7.6337    0.0645    0.2094 N.3       1 <0>        -0.2965
      8 N2         -0.4150   -0.1651    0.7361 N.2       1 <0>        -0.0890
      9 C1          7.2909   -0.0811   -0.3464 C.3       1 <0>        -0.0153
     10 C2          8.2152   -0.9913    0.4811 C.3       1 <0>        -0.0462
     11 C3          7.6809    1.3981   -0.1785 C.3       1 <0>        -0.0462
     12 C4         -9.3673    0.7790   -0.7434 C.3       1 <0>         0.0816
     13 C5          9.6854   -0.7504    0.1425 C.3       1 <0>        -0.0525
     14 C6          9.1532    1.6291   -0.5147 C.3       1 <0>        -0.0525
     15 C7         10.0665    0.7186    0.3008 C.3       1 <0>        -0.0530
     16 C8         -9.0744    0.0242    0.5609 C.3       1 <0>         0.0134
     17 C9         -7.9128    1.2563   -0.6286 C.3       1 <0>         0.0134
     18 C10         5.8272   -0.3202   -0.0239 C.ar      1 <0>        -0.0326
     19 C11        -6.8505    0.4572    1.3811 C.3       1 <0>         0.0243
     20 C12         4.9447   -0.7863   -0.9983 C.ar      1 <0>         0.0586
     21 C13        -9.7896   -0.0248   -1.9882 C.2       1 <0>         0.3103
     22 C14        -5.3867    0.5163    1.0905 C.ar      1 <0>        -0.0302
     23 C15         5.3683   -0.0659    1.2687 C.ar      1 <0>        -0.0574
     24 C16        -4.6276   -0.6495    0.9888 C.ar      1 <0>        -0.0426
     25 C17         3.6031   -0.9982   -0.6804 C.ar      1 <0>        -0.0434
     26 C18         4.0267   -0.2778    1.5865 C.ar      1 <0>        -0.0550
     27 C19         3.1440   -0.7441    0.6121 C.ar      1 <0>        -0.0073
     28 C20         5.4130   -1.0638   -2.3891 C.3       1 <0>         0.4177
     29 C21        -4.7796    1.7606    0.9210 C.ar      1 <0>        -0.0565
     30 C22        -5.2552   -1.9932    1.1672 C.3       1 <0>        -0.0302
     31 C23        -3.2616   -0.5709    0.7177 C.ar      1 <0>        -0.0493
     32 C24        -2.6545    0.6734    0.5485 C.ar      1 <0>        -0.0006
     33 C25        -3.4135    1.8393    0.6502 C.ar      1 <0>        -0.0525
     34 C26         1.7099   -0.9706    0.9526 C.3       1 <0>         0.1429
     35 C27        -5.4806   -2.7074   -0.1619 C.3       1 <0>        -0.0613
     36 C28        -1.1968    0.7583    0.2606 C.2       1 <0>         0.0841
     37 C29        -0.6955    1.9270   -0.5648 C.3       1 <0>        -0.0186
     38 H1          7.5004   -0.3229   -1.3916 H         1 <0>         0.0349
     39 H2          7.9694   -2.0444    0.2953 H         1 <0>         0.0271
     40 H3          8.0715   -0.8218    1.5554 H         1 <0>         0.0271
     41 H4          7.0588    2.0263   -0.8284 H         1 <0>         0.0271
     42 H5          7.4995    1.7361    0.8493 H         1 <0>         0.0271
     43 H6        -10.0739    1.6056   -0.5765 H         1 <0>         0.0439
     44 H7         10.3180   -1.3670    0.7909 H         1 <0>         0.0265
     45 H8          9.8797   -1.0692   -0.8890 H         1 <0>         0.0265
     46 H9          9.3166    1.4476   -1.5841 H         1 <0>         0.0265
     47 H10         9.4137    2.6767   -0.3260 H         1 <0>         0.0265
     48 H11        -9.3704    0.5770    1.4625 H         1 <0>         0.0435
     49 H12        -9.4903   -0.9861    0.6266 H         1 <0>         0.0435
     50 H13        -7.8191    2.2384   -0.1467 H         1 <0>         0.0435
     51 H14        -7.3509    1.2834   -1.5680 H         1 <0>         0.0435
     52 H15        11.1067    0.8650   -0.0113 H         1 <0>         0.0265
     53 H16        10.0082    0.9980    1.3601 H         1 <0>         0.0265
     54 H17        -7.1798    1.4257    1.7882 H         1 <0>         0.0476
     55 H18        -7.0367   -0.2283    2.2169 H         1 <0>         0.0476
     56 H19         6.0353    0.2980    2.0449 H         1 <0>         0.0621
     57 H20         2.9053   -1.3604   -1.4313 H         1 <0>         0.0627
     58 H21         3.6827   -0.0735    2.5969 H         1 <0>         0.0621
     59 H22        -5.3555    2.6788    1.0010 H         1 <0>         0.0621
     60 H23        -6.1900   -1.9806    1.7304 H         1 <0>         0.0311
     61 H24        -4.5841   -2.6088    1.7820 H         1 <0>         0.0311
     62 H25        -2.6786   -1.4853    0.6338 H         1 <0>         0.0627
     63 H26       -11.1782   -0.0431   -3.3598 H         1 <0>         0.2951
     64 H27        -2.9661    2.8237    0.5469 H         1 <0>         0.0624
     65 H28         1.5662   -1.0004    2.0400 H         1 <0>         0.0775
     66 H29         1.3804   -1.9368    0.5495 H         1 <0>         0.0775
     67 H30        -4.5376   -2.8665   -0.6958 H         1 <0>         0.0233
     68 H31        -5.9361   -3.6879    0.0108 H         1 <0>         0.0233
     69 H32        -6.1438   -2.1366   -0.8190 H         1 <0>         0.0233
     70 H33        -1.4979    2.4014   -1.1351 H         1 <0>         0.0294
     71 H34         0.0460    1.5844   -1.2929 H         1 <0>         0.0294
     72 H35        -0.2342    2.6646    0.0979 H         1 <0>         0.0294
@<TRIPOS>BOND
     1    1   28 1
     2    2   28 1
     3    3   28 1
     4    4   21 1
     5    4   63 1
     6    5   21 2
     7    6    8 1
     8    6   34 1
     9    7   16 1
    10    7   17 1
    11    7   19 1
    12    8   36 2
    13    9   10 1
    14    9   11 1
    15    9   18 1
    16    9   38 1
    17   10   13 1
    18   10   39 1
    19   10   40 1
    20   11   14 1
    21   11   41 1
    22   11   42 1
    23   12   16 1
    24   12   17 1
    25   12   21 1
    26   12   43 1
    27   13   15 1
    28   13   44 1
    29   13   45 1
    30   14   15 1
    31   14   46 1
    32   14   47 1
    33   15   52 1
    34   15   53 1
    35   16   48 1
    36   16   49 1
    37   17   50 1
    38   17   51 1
    39   18   20 ar
    40   18   23 ar
    41   19   22 1
    42   19   54 1
    43   19   55 1
    44   20   25 ar
    45   20   28 1
    46   22   24 ar
    47   22   29 ar
    48   23   26 ar
    49   23   56 1
    50   24   30 1
    51   24   31 ar
    52   25   27 ar
    53   25   57 1
    54   26   27 ar
    55   26   58 1
    56   27   34 1
    57   29   33 ar
    58   29   59 1
    59   30   35 1
    60   30   60 1
    61   30   61 1
    62   31   32 ar
    63   31   62 1
    64   32   33 ar
    65   32   36 1
    66   33   64 1
    67   34   65 1
    68   34   66 1
    69   35   67 1
    70   35   68 1
    71   35   69 1
    72   36   37 1
    73   37   70 1
    74   37   71 1
    75   37   72 1
