@<TRIPOS>MOLECULE
DB12313
   58    59     0     0     0
SMALL
USER_CHARGES

@<TRIPOS>ATOM
      1 O1         10.1232    2.3140   -0.7638 O.3       1 <0>        -0.5033
      2 O2         11.3867   -0.1029   -1.2974 O.3       1 <0>        -0.5033
      3 N1          3.9033   -0.0568    0.9197 N.3       1 <0>        -0.3157
      4 N2         -4.6773   -0.1809   -0.8229 N.3       1 <0>        -0.3157
      5 C1          0.3067   -0.1707   -0.3278 C.3       1 <0>        -0.0519
      6 C2         -1.0453   -0.1077    0.3868 C.3       1 <0>        -0.0519
      7 C3          1.4653   -0.0883    0.6696 C.3       1 <0>        -0.0404
      8 C4         -2.2417   -0.2172   -0.5638 C.3       1 <0>        -0.0404
      9 C5          2.8140   -0.1152   -0.0476 C.3       1 <0>        -0.0041
     10 C6         -3.5893   -0.0763    0.1434 C.3       1 <0>        -0.0041
     11 C7          5.1956   -0.0922    0.2497 C.3       1 <0>        -0.0001
     12 C8         -5.9689   -0.0385   -0.1666 C.3       1 <0>        -0.0001
     13 C9          6.3397   -0.0402    1.2631 C.3       1 <0>        -0.0150
     14 C10        -7.1114   -0.1408   -1.1778 C.3       1 <0>        -0.0151
     15 C11         7.6843   -0.0536    0.5807 C.ar      1 <0>        -0.0425
     16 C12        -8.4548    0.0274   -0.5138 C.ar      1 <0>        -0.0462
     17 C13         8.2938    1.1473    0.2172 C.ar      1 <0>        -0.0133
     18 C14         8.3185   -1.2668    0.3127 C.ar      1 <0>        -0.0549
     19 C15        -9.1336   -1.0871   -0.0207 C.ar      1 <0>        -0.0585
     20 C16        -9.0187    1.2975   -0.3921 C.ar      1 <0>        -0.0585
     21 C17         9.5374    1.1350   -0.4144 C.ar      1 <0>         0.1585
     22 C18         9.5620   -1.2791   -0.3190 C.ar      1 <0>        -0.0163
     23 C19        10.1715   -0.0782   -0.6824 C.ar      1 <0>         0.1582
     24 C20       -10.3760   -0.9317    0.5938 C.ar      1 <0>        -0.0615
     25 C21       -10.2613    1.4529    0.2224 C.ar      1 <0>        -0.0615
     26 C22       -10.9399    0.3382    0.7154 C.ar      1 <0>        -0.0617
     27 H1          0.3767   -1.1049   -0.8979 H         1 <0>         0.0266
     28 H2          0.3775    0.6542   -1.0471 H         1 <0>         0.0266
     29 H3         -1.1039   -0.9149    1.1275 H         1 <0>         0.0266
     30 H4         -1.1136    0.8364    0.9416 H         1 <0>         0.0266
     31 H5          1.4010   -0.9277    1.3735 H         1 <0>         0.0277
     32 H6          1.3762    0.8340    1.2576 H         1 <0>         0.0277
     33 H7         -2.1952   -1.1837   -1.0819 H         1 <0>         0.0277
     34 H8         -2.1542    0.5592   -1.3351 H         1 <0>         0.0277
     35 H9          2.8746    0.7338   -0.7396 H         1 <0>         0.0424
     36 H10         2.8871   -1.0364   -0.6382 H         1 <0>         0.0424
     37 H11        -3.6804   -0.8578    0.9073 H         1 <0>         0.0424
     38 H12        -3.6274    0.8960    0.6493 H         1 <0>         0.0424
     39 H13         3.8258    0.7936    1.4767 H         1 <0>         0.1219
     40 H14        -4.6298   -1.0803   -1.3009 H         1 <0>         0.1219
     41 H15         5.2823   -1.0104   -0.3451 H         1 <0>         0.0427
     42 H16         5.2824    0.7544   -0.4436 H         1 <0>         0.0427
     43 H17        -6.0897   -0.8140    0.6008 H         1 <0>         0.0427
     44 H18        -6.0221    0.9331    0.3411 H         1 <0>         0.0427
     45 H19         6.2731   -0.8893    1.9562 H         1 <0>         0.0325
     46 H20         6.2583    0.8606    1.8857 H         1 <0>         0.0325
     47 H21        -7.0793   -1.1095   -1.6941 H         1 <0>         0.0325
     48 H22        -6.9956    0.6194   -1.9616 H         1 <0>         0.0325
     49 H23         7.7972    2.0921    0.4254 H         1 <0>         0.0658
     50 H24         7.8526   -2.2088    0.5895 H         1 <0>         0.0621
     51 H25        -8.7036   -2.0814   -0.1078 H         1 <0>         0.0620
     52 H26        -8.4989    2.1736   -0.7705 H         1 <0>         0.0620
     53 H27        10.0447   -2.2313   -0.5222 H         1 <0>         0.0655
     54 H28       -10.9042   -1.7994    0.9782 H         1 <0>         0.0618
     55 H29       -10.7004    2.4416    0.3177 H         1 <0>         0.0618
     56 H30       -11.9072    0.4592    1.1942 H         1 <0>         0.0618
     57 H31         9.5412    3.0476   -0.5007 H         1 <0>         0.2923
     58 H32        11.6709   -1.0274   -1.4005 H         1 <0>         0.2923
@<TRIPOS>BOND
     1    1   21 1
     2    1   57 1
     3    2   23 1
     4    2   58 1
     5    3    9 1
     6    3   11 1
     7    3   39 1
     8    4   10 1
     9    4   12 1
    10    4   40 1
    11    5    6 1
    12    5    7 1
    13    5   27 1
    14    5   28 1
    15    6    8 1
    16    6   29 1
    17    6   30 1
    18    7    9 1
    19    7   31 1
    20    7   32 1
    21    8   10 1
    22    8   33 1
    23    8   34 1
    24    9   35 1
    25    9   36 1
    26   10   37 1
    27   10   38 1
    28   11   13 1
    29   11   41 1
    30   11   42 1
    31   12   14 1
    32   12   43 1
    33   12   44 1
    34   13   15 1
    35   13   45 1
    36   13   46 1
    37   14   16 1
    38   14   47 1
    39   14   48 1
    40   15   17 ar
    41   15   18 ar
    42   16   19 ar
    43   16   20 ar
    44   17   21 ar
    45   17   49 1
    46   18   22 ar
    47   18   50 1
    48   19   24 ar
    49   19   51 1
    50   20   25 ar
    51   20   52 1
    52   21   23 ar
    53   22   23 ar
    54   22   53 1
    55   24   26 ar
    56   24   54 1
    57   25   26 ar
    58   25   55 1
    59   26   56 1
