@<TRIPOS>MOLECULE
DB12911
   33    33     0     0     0
SMALL
USER_CHARGES

@<TRIPOS>ATOM
      1 O1         -1.1817    1.0720   -0.1522 O.3       1 <0>        -0.3764
      2 O2          1.6030    1.2017    0.0889 O.3       1 <0>        -0.4588
      3 O3          3.3903    2.1500   -1.0089 O.2       1 <0>        -0.2449
      4 N1          3.5044   -2.2283    0.8730 N.ar      1 <0>        -0.2624
      5 C1         -3.0900   -0.3644   -0.3207 C.3       1 <0>        -0.0297
      6 C2         -4.4871   -0.6754    0.2088 C.3       1 <0>        -0.0538
      7 C3         -2.4696    0.8266    0.3956 C.3       1 <0>         0.0478
      8 C4         -0.5482    2.1773    0.4779 C.3       1 <0>         0.0818
      9 C5         -5.1202   -1.8381   -0.5385 C.3       1 <0>        -0.0652
     10 C6          0.8267    2.3729   -0.1315 C.3       1 <0>         0.1160
     11 C7          2.8717    1.2245   -0.4040 C.2       1 <0>         0.3407
     12 C8          3.5727   -0.0511   -0.1106 C.ar      1 <0>         0.0770
     13 C9          4.8700   -0.2309   -0.5268 C.ar      1 <0>        -0.0449
     14 C10         2.9247   -1.0443    0.5736 C.ar      1 <0>         0.0415
     15 C11         5.5004   -1.4360   -0.2376 C.ar      1 <0>        -0.0428
     16 C12         4.7806   -2.3938    0.4586 C.ar      1 <0>         0.0276
     17 H1         -3.1296   -0.1578   -1.3978 H         1 <0>         0.0287
     18 H2         -2.4370   -1.2389   -0.2075 H         1 <0>         0.0287
     19 H3         -4.4351   -0.9176    1.2766 H         1 <0>         0.0263
     20 H4         -5.1294    0.2071    0.1072 H         1 <0>         0.0263
     21 H5         -3.0988    1.7147    0.2631 H         1 <0>         0.0560
     22 H6         -2.3790    0.6140    1.4674 H         1 <0>         0.0560
     23 H7         -1.1507    3.0814    0.3380 H         1 <0>         0.0594
     24 H8         -0.4502    1.9678    1.5494 H         1 <0>         0.0594
     25 H9         -5.2180   -1.6125   -1.6053 H         1 <0>         0.0230
     26 H10        -4.5183   -2.7464   -0.4329 H         1 <0>         0.0230
     27 H11        -6.1192   -2.0446   -0.1421 H         1 <0>         0.0230
     28 H12         0.7327    2.5355   -1.2115 H         1 <0>         0.0721
     29 H13         1.3189    3.2363    0.3295 H         1 <0>         0.0721
     30 H14         5.4130    0.5354   -1.0711 H         1 <0>         0.0627
     31 H15         1.9032   -0.9666    0.9290 H         1 <0>         0.0838
     32 H16         6.5229   -1.6200   -0.5470 H         1 <0>         0.0633
     33 H17         5.2268   -3.3506    0.7091 H         1 <0>         0.0829
@<TRIPOS>BOND
     1    1    7 1
     2    1    8 1
     3    2   10 1
     4    2   11 1
     5    3   11 2
     6    4   14 ar
     7    4   16 ar
     8    5    6 1
     9    5    7 1
    10    5   17 1
    11    5   18 1
    12    6    9 1
    13    6   19 1
    14    6   20 1
    15    7   21 1
    16    7   22 1
    17    8   10 1
    18    8   23 1
    19    8   24 1
    20    9   25 1
    21    9   26 1
    22    9   27 1
    23   10   28 1
    24   10   29 1
    25   11   12 1
    26   12   13 ar
    27   12   14 ar
    28   13   15 ar
    29   13   30 1
    30   14   31 1
    31   15   16 ar
    32   15   32 1
    33   16   33 1
