@<TRIPOS>MOLECULE
DB12523
   57    61     0     0     0
SMALL
USER_CHARGES

@<TRIPOS>ATOM
      1 F1          2.0691    5.4121    0.9439 F         1 <0>        -0.2055
      2 O1         -6.0563   -3.1949   -0.6857 O.2       1 <0>        -0.2678
      3 N1          0.5051   -1.2614    0.6009 N.pl3     1 <0>        -0.3008
      4 N2         -3.3522    0.3920    0.4861 N.pl3     1 <0>        -0.3010
      5 N3          2.5229   -0.6941   -0.5136 N.pl3     1 <0>        -0.3073
      6 N4          2.6716   -2.2563    1.0603 N.2       1 <0>        -0.2143
      7 N5         -4.7238   -1.3923   -0.1048 N.am      1 <0>        -0.2950
      8 N6         -5.5491    0.8130   -0.1812 N.2       1 <0>        -0.2241
      9 C1         -2.2878   -0.5523    0.7463 C.3       1 <0>         0.0287
     10 C2         -1.6347   -0.9752   -0.5706 C.3       1 <0>        -0.0184
     11 C3         -1.2502    0.0863    1.6698 C.3       1 <0>        -0.0184
     12 C4         -0.4454   -1.8989   -0.3191 C.3       1 <0>         0.0165
     13 C5         -0.0491   -0.8345    1.8899 C.3       1 <0>         0.0165
     14 C6          1.8598   -1.4361    0.4266 C.cat     1 <0>         0.1995
     15 C7         -2.9881    1.8027    0.4558 C.3       1 <0>         0.0036
     16 C8         -4.5730   -0.0194    0.0603 C.2       1 <0>         0.1982
     17 C9          3.8445   -1.0593   -0.4841 C.ar      1 <0>         0.0704
     18 C10         1.9455    0.3012   -1.3907 C.3       1 <0>         0.0514
     19 C11         3.9115   -2.0355    0.5063 C.ar      1 <0>         0.0909
     20 C12         4.9530   -0.6328   -1.2163 C.ar      1 <0>        -0.0360
     21 C13         1.9787    1.6696   -0.7656 C.ar      1 <0>        -0.0275
     22 C14         5.1501   -2.6322    0.7968 C.ar      1 <0>        -0.0342
     23 C15         6.1776   -1.2375   -0.9141 C.ar      1 <0>        -0.0597
     24 C16         6.2765   -2.2195    0.0741 C.ar      1 <0>        -0.0596
     25 C17        -5.8955   -1.9893   -0.5307 C.2       1 <0>         0.2526
     26 C18         3.1352    2.1048   -0.1334 C.ar      1 <0>        -0.0542
     27 C19         0.8522    2.4782   -0.8303 C.ar      1 <0>        -0.0542
     28 C20        -6.7350    0.2720   -0.6067 C.2       1 <0>         0.0363
     29 C21        -6.9851   -1.0279   -0.7975 C.2       1 <0>         0.0210
     30 C22         3.1658    3.3733    0.4460 C.ar      1 <0>        -0.0261
     31 C23         0.8828    3.7468   -0.2510 C.ar      1 <0>        -0.0261
     32 C24         2.0397    4.1944    0.3870 C.ar      1 <0>         0.1234
     33 H1         -2.6539   -1.4296    1.2944 H         1 <0>         0.0501
     34 H2         -1.2984   -0.0892   -1.1220 H         1 <0>         0.0298
     35 H3         -2.3420   -1.4859   -1.2324 H         1 <0>         0.0298
     36 H4         -1.6981    0.3346    2.6399 H         1 <0>         0.0298
     37 H5         -0.8392    1.0141    1.2578 H         1 <0>         0.0298
     38 H6         -0.7881   -2.8458    0.1164 H         1 <0>         0.0465
     39 H7          0.0302   -2.1445   -1.2762 H         1 <0>         0.0465
     40 H8          0.7080   -0.3003    2.4772 H         1 <0>         0.0465
     41 H9         -0.3470   -1.7173    2.4685 H         1 <0>         0.0465
     42 H10        -2.7681    2.1782    1.4607 H         1 <0>         0.0429
     43 H11        -3.7951    2.4370    0.0727 H         1 <0>         0.0429
     44 H12        -2.1377    1.9817   -0.2073 H         1 <0>         0.0429
     45 H13         0.9329   -0.0016   -1.6613 H         1 <0>         0.0542
     46 H14         2.5166    0.3137   -2.3262 H         1 <0>         0.0542
     47 H15         4.8837    0.1238   -1.9895 H         1 <0>         0.0639
     48 H16        -3.9651   -2.0357    0.0781 H         1 <0>         0.1716
     49 H17         5.2375   -3.3961    1.5627 H         1 <0>         0.0639
     50 H18         7.0685   -0.9377   -1.4605 H         1 <0>         0.0618
     51 H19         7.2421   -2.6714    0.2861 H         1 <0>         0.0618
     52 H20         4.0410    1.5207   -0.0675 H         1 <0>         0.0622
     53 H21        -0.0488    2.1439   -1.3349 H         1 <0>         0.0622
     54 H22        -7.5229    0.9938   -0.7973 H         1 <0>         0.0832
     55 H23        -7.9459   -1.3937   -1.1360 H         1 <0>         0.0687
     56 H24         4.0668    3.7238    0.9408 H         1 <0>         0.0646
     57 H25         0.0065    4.3867   -0.2983 H         1 <0>         0.0646
@<TRIPOS>BOND
     1    1   32 1
     2    2   25 2
     3    3   12 1
     4    3   13 1
     5    3   14 1
     6    4    9 1
     7    4   15 1
     8    4   16 1
     9    5   14 1
    10    5   17 2
    11    5   18 1
    12    6   14 1
    13    6   19 2
    14    7   16 1
    15    7   25 am
    16    7   48 1
    17    8   16 2
    18    8   28 1
    19    9   10 1
    20    9   11 1
    21    9   33 1
    22   10   12 1
    23   10   34 1
    24   10   35 1
    25   11   13 1
    26   11   36 1
    27   11   37 1
    28   12   38 1
    29   12   39 1
    30   13   40 1
    31   13   41 1
    32   15   42 1
    33   15   43 1
    34   15   44 1
    35   17   19 ar
    36   17   20 ar
    37   18   21 1
    38   18   45 1
    39   18   46 1
    40   19   22 ar
    41   20   23 ar
    42   20   47 1
    43   21   26 ar
    44   21   27 ar
    45   22   24 ar
    46   22   49 1
    47   23   24 ar
    48   23   50 1
    49   24   51 1
    50   25   29 1
    51   26   30 ar
    52   26   52 1
    53   27   31 ar
    54   27   53 1
    55   28   29 2
    56   28   54 1
    57   29   55 1
    58   30   32 ar
    59   30   56 1
    60   31   32 ar
    61   31   57 1
