@<TRIPOS>MOLECULE
DB12328
   26    28     0     0     0
SMALL
USER_CHARGES

@<TRIPOS>ATOM
      1 O1          0.8491   -0.0032    1.8004 O.3       1 <0>        -0.3711
      2 O2         -2.3214    0.0071    1.5168 O.3       1 <0>        -0.3924
      3 O3         -2.0629   -2.2532    1.3637 O.2       1 <0>        -0.2496
      4 O4         -2.0530    2.2655    1.3578 O.2       1 <0>        -0.2496
      5 C1         -0.5727   -0.7667    0.1394 C.3       1 <0>         0.1091
      6 C2         -0.5681    0.7694    0.1391 C.3       1 <0>         0.1091
      7 C3          0.7633   -1.0902    0.8396 C.3       1 <0>         0.0757
      8 C4          0.7689    1.0855    0.8414 C.3       1 <0>         0.0757
      9 C5          1.9834   -0.7701   -0.0245 C.3       1 <0>        -0.0231
     10 C6          1.9886    0.7610   -0.0214 C.3       1 <0>        -0.0231
     11 C7         -1.7184   -1.1205    1.0584 C.2       1 <0>         0.3241
     12 C8         -1.7130    1.1307    1.0561 C.2       1 <0>         0.3241
     13 C9         -0.7915   -1.4729   -1.1935 C.3       1 <0>        -0.0458
     14 C10        -0.7804    1.4759   -1.1950 C.3       1 <0>        -0.0458
     15 H1          0.8039   -2.0613    1.3397 H         1 <0>         0.0607
     16 H2          0.8136    2.0557    1.3432 H         1 <0>         0.0607
     17 H3          1.9495   -1.2021   -1.0269 H         1 <0>         0.0291
     18 H4          2.8969   -1.1317    0.4626 H         1 <0>         0.0291
     19 H5          2.9032    1.1144    0.4691 H         1 <0>         0.0291
     20 H6          1.9595    1.1973   -1.0221 H         1 <0>         0.0291
     21 H7         -0.6959   -2.5586   -1.0771 H         1 <0>         0.0241
     22 H8         -1.7975   -1.2802   -1.5842 H         1 <0>         0.0241
     23 H9         -0.0752   -1.1606   -1.9583 H         1 <0>         0.0241
     24 H10        -0.0647    1.1584   -1.9581 H         1 <0>         0.0241
     25 H11        -1.7870    1.2891   -1.5870 H         1 <0>         0.0241
     26 H12        -0.6781    2.5611   -1.0793 H         1 <0>         0.0241
@<TRIPOS>BOND
     1    1    7 1
     2    1    8 1
     3    2   11 1
     4    2   12 1
     5    3   11 2
     6    4   12 2
     7    5    6 1
     8    5    7 1
     9    5   11 1
    10    5   13 1
    11    6    8 1
    12    6   12 1
    13    6   14 1
    14    7    9 1
    15    7   15 1
    16    8   10 1
    17    8   16 1
    18    9   10 1
    19    9   17 1
    20    9   18 1
    21   10   19 1
    22   10   20 1
    23   13   21 1
    24   13   22 1
    25   13   23 1
    26   14   24 1
    27   14   25 1
    28   14   26 1
