@<TRIPOS>MOLECULE
DB12938
   36    38     0     0     0
SMALL
USER_CHARGES

@<TRIPOS>ATOM
      1 S1         -0.7048   -1.8801    1.0507 S.o2      1 <0>        -0.0052
      2 F1         -5.8139    1.4907   -0.7414 F         1 <0>        -0.1659
      3 F2         -5.8141   -0.6752   -0.6282 F         1 <0>        -0.1659
      4 F3         -5.6484    0.5058    1.1903 F         1 <0>        -0.1659
      5 O1          3.0759    1.9677    1.4745 O.3       1 <0>        -0.3586
      6 O2          1.0174   -0.1169   -1.5327 O.2       1 <0>        -0.2864
      7 O3          0.4308   -1.2834    1.7364 O.2       1 <0>        -0.1696
      8 O4         -1.6370   -2.7214    1.7857 O.2       1 <0>        -0.1696
      9 N1          1.9618    2.3523    2.2107 N.2       1 <0>        -0.0858
     10 C1          3.6272    0.6488   -0.6407 C.3       1 <0>         0.0206
     11 C2          5.0462    0.3505   -0.2411 C.3       1 <0>        -0.0426
     12 C3          4.0834   -0.7757   -0.4798 C.3       1 <0>        -0.0426
     13 C4          2.6740    1.2436    0.3988 C.2       1 <0>         0.1511
     14 C5          1.3341    1.1568    0.4305 C.2       1 <0>         0.0843
     15 C6          0.4984    0.4522   -0.5618 C.2       1 <0>         0.1998
     16 C7          0.9180    1.8436    1.5496 C.2       1 <0>         0.0812
     17 C8         -0.9523    0.4220   -0.4299 C.ar      1 <0>         0.0472
     18 C9         -1.6010   -0.5893    0.2788 C.ar      1 <0>         0.0992
     19 C10        -1.6942    1.4381   -1.0322 C.ar      1 <0>        -0.0485
     20 C11        -2.9919   -0.5845    0.3848 C.ar      1 <0>        -0.0246
     21 C12        -3.7338    0.4315   -0.2177 C.ar      1 <0>         0.0566
     22 C13        -3.0849    1.4428   -0.9263 C.ar      1 <0>        -0.0493
     23 C14        -0.0826   -2.8498   -0.3027 C.3       1 <0>         0.0596
     24 C15        -5.2207    0.4380   -0.1043 C.3       1 <0>         0.4175
     25 H1          3.4874    1.0172   -1.6518 H         1 <0>         0.0380
     26 H2          5.3589    0.5331    0.7797 H         1 <0>         0.0272
     27 H3          5.8224    0.5137   -0.9792 H         1 <0>         0.0272
     28 H4          4.2101   -1.3672   -1.3783 H         1 <0>         0.0272
     29 H5          3.7433   -1.3390    0.3809 H         1 <0>         0.0272
     30 H6         -0.0741    2.0154    1.9405 H         1 <0>         0.0871
     31 H7         -1.2008    2.2320   -1.5873 H         1 <0>         0.0625
     32 H8         -3.5188   -1.3628    0.9300 H         1 <0>         0.0642
     33 H9         -3.6454    2.2427   -1.4022 H         1 <0>         0.0623
     34 H10         0.7463   -2.3473   -0.7928 H         1 <0>         0.0468
     35 H11         0.2789   -3.7949    0.1111 H         1 <0>         0.0468
     36 H12        -0.8958   -3.0513   -1.0025 H         1 <0>         0.0468
@<TRIPOS>BOND
     1    1    7 2
     2    1    8 2
     3    1   18 1
     4    1   23 1
     5    2   24 1
     6    3   24 1
     7    4   24 1
     8    5    9 1
     9    5   13 1
    10    6   15 2
    11    9   16 2
    12   10   11 1
    13   10   12 1
    14   10   13 1
    15   10   25 1
    16   11   12 1
    17   11   26 1
    18   11   27 1
    19   12   28 1
    20   12   29 1
    21   13   14 2
    22   14   15 1
    23   14   16 1
    24   15   17 1
    25   16   30 1
    26   17   18 ar
    27   17   19 ar
    28   18   20 ar
    29   19   22 ar
    30   19   31 1
    31   20   21 ar
    32   20   32 1
    33   21   22 ar
    34   21   24 1
    35   22   33 1
    36   23   34 1
    37   23   35 1
    38   23   36 1
