@<TRIPOS>MOLECULE
DB12767
   41    41     0     0     0
SMALL
USER_CHARGES

@<TRIPOS>ATOM
      1 O1         -1.1915   -0.9043   -0.1698 O.3       1 <0>        -0.3405
      2 O2          0.3954    0.7371   -0.6556 O.3       1 <0>        -0.3405
      3 O3         -4.2670    1.8273   -0.6247 O.3       1 <0>        -0.3864
      4 O4         -3.7204   -0.7577   -1.4897 O.3       1 <0>        -0.3865
      5 O5         -1.5601    2.7393   -0.1705 O.3       1 <0>        -0.3841
      6 O6         -1.5097   -3.4362    0.8442 O.3       1 <0>        -0.3924
      7 O7          2.3314   -1.0600   -1.4982 O.3       1 <0>        -0.3861
      8 O8          2.1612    2.7912    0.1181 O.3       1 <0>        -0.3924
      9 O9          3.6668   -1.3506    1.0029 O.3       1 <0>        -0.3819
     10 O10         5.6266   -1.8602   -0.7517 O.2       1 <0>        -0.2982
     11 C1         -3.2725    1.0567    0.0443 C.3       1 <0>         0.1141
     12 C2         -3.5731   -0.4350   -0.1054 C.3       1 <0>         0.1119
     13 C3         -1.8989    1.4004   -0.5311 C.3       1 <0>         0.1341
     14 C4         -2.4195   -1.2575    0.4790 C.3       1 <0>         0.1130
     15 C5         -0.8273    0.4612    0.0270 C.3       1 <0>         0.1884
     16 C6          1.5180    0.4754    0.1717 C.3       1 <0>         0.1133
     17 C7         -2.6207   -2.7562    0.2879 C.3       1 <0>         0.0730
     18 C8          2.7162    0.0554   -0.6933 C.3       1 <0>         0.1159
     19 C9          1.8150    1.7273    0.9991 C.3       1 <0>         0.0730
     20 C10         3.9798   -0.2955    0.1049 C.3       1 <0>         0.1381
     21 C11         5.1221   -0.7421   -0.7855 C.2       1 <0>         0.1512
     22 H1         -3.3159    1.3328    1.1053 H         1 <0>         0.0648
     23 H2         -4.5235   -0.6801    0.3805 H         1 <0>         0.0647
     24 H3         -1.9164    1.3688   -1.6265 H         1 <0>         0.0671
     25 H4         -2.3045   -1.0520    1.5515 H         1 <0>         0.0647
     26 H5         -0.7156    0.6471    1.1039 H         1 <0>         0.0938
     27 H6          1.2810   -0.3591    0.8458 H         1 <0>         0.0647
     28 H7         -2.6747   -3.0319   -0.7700 H         1 <0>         0.0584
     29 H8         -3.5294   -3.1018    0.7892 H         1 <0>         0.0584
     30 H9          2.9507    0.8512   -1.4101 H         1 <0>         0.0650
     31 H10        -4.0291    2.7643   -0.5196 H         1 <0>         0.2100
     32 H11        -1.5384    2.7944    0.8001 H         1 <0>         0.2101
     33 H12        -2.8483   -0.6901   -1.9136 H         1 <0>         0.2100
     34 H13         2.6380    1.5740    1.7016 H         1 <0>         0.0584
     35 H14         0.9450    2.0544    1.5759 H         1 <0>         0.0584
     36 H15         4.3364    0.5622    0.6829 H         1 <0>         0.0697
     37 H16        -0.7107   -3.1116    0.3947 H         1 <0>         0.2095
     38 H17         2.1360   -1.8011   -0.8993 H         1 <0>         0.2100
     39 H18         5.4970    0.0222   -1.4880 H         1 <0>         0.1055
     40 H19         1.4123    2.9218   -0.4884 H         1 <0>         0.2095
     41 H20         4.4380   -1.4814    1.5807 H         1 <0>         0.2105
@<TRIPOS>BOND
     1    1   14 1
     2    1   15 1
     3    2   15 1
     4    2   16 1
     5    3   11 1
     6    3   31 1
     7    4   12 1
     8    4   33 1
     9    5   13 1
    10    5   32 1
    11    6   17 1
    12    6   37 1
    13    7   18 1
    14    7   38 1
    15    8   19 1
    16    8   40 1
    17    9   20 1
    18    9   41 1
    19   10   21 2
    20   11   12 1
    21   11   13 1
    22   11   22 1
    23   12   14 1
    24   12   23 1
    25   13   15 1
    26   13   24 1
    27   14   17 1
    28   14   25 1
    29   15   26 1
    30   16   18 1
    31   16   19 1
    32   16   27 1
    33   17   28 1
    34   17   29 1
    35   18   20 1
    36   18   30 1
    37   19   34 1
    38   19   35 1
    39   20   21 1
    40   20   36 1
    41   21   39 1
