@<TRIPOS>MOLECULE
DB12343
   45    47     0     0     0
SMALL
USER_CHARGES

@<TRIPOS>ATOM
      1 S1          0.8243   -0.8808    0.8180 S.3       1 <0>        -0.1246
      2 S2         -2.1137   -3.9929   -1.0614 S.3       1 <0>        -0.1048
      3 O1         -0.5407    2.9791    1.0586 O.3       1 <0>        -0.3492
      4 O2          1.1547    2.7356   -1.6778 O.2       1 <0>        -0.2704
      5 O3          5.0436    0.0415   -1.1446 O.3       1 <0>        -0.4793
      6 O4          4.5149    1.9506   -0.0171 O.2       1 <0>        -0.2489
      7 O5         -2.4803    0.8507    1.6218 O.2       1 <0>        -0.2745
      8 O6         -5.0583    1.3095   -0.2550 O.3       1 <0>        -0.4799
      9 O7         -5.4960   -0.8612    0.2453 O.2       1 <0>        -0.2498
     10 N1          1.9333    1.3374    0.0569 N.am      1 <0>        -0.2659
     11 N2         -1.1397    1.0249   -0.2627 N.am      1 <0>        -0.2770
     12 C1          0.9655    0.9253    1.0780 C.3       1 <0>         0.1285
     13 C2         -0.0663    1.8092    0.3640 C.3       1 <0>         0.2418
     14 C3          2.7963    0.3372   -0.5382 C.3       1 <0>         0.1381
     15 C4          2.5950   -0.9761    0.2481 C.3       1 <0>         0.0418
     16 C5          1.0661    2.1372   -0.6297 C.2       1 <0>         0.2709
     17 C6          3.4842   -1.1169    1.4912 C.3       1 <0>        -0.0484
     18 C7          2.7614   -2.1988   -0.6563 C.3       1 <0>        -0.0484
     19 C8          4.1870    0.8864   -0.5204 C.2       1 <0>         0.3269
     20 C9         -2.2692    0.6092    0.4346 C.2       1 <0>         0.2338
     21 C10        -1.0705    4.0064    0.2339 C.3       1 <0>         0.0396
     22 C11        -3.2370   -0.2011   -0.4262 C.3       1 <0>         0.1576
     23 C12        -2.8581   -1.6635   -0.3733 C.2       1 <0>        -0.0179
     24 C13        -4.7021    0.0097   -0.0823 C.2       1 <0>         0.3212
     25 C14        -2.8713   -2.4139    0.8182 C.2       1 <0>        -0.0503
     26 C15        -2.4729   -2.3696   -1.4711 C.2       1 <0>        -0.0199
     27 C16        -2.4830   -3.7152    0.5875 C.2       1 <0>        -0.0240
     28 H1          1.2560    1.2380    2.0852 H         1 <0>         0.0668
     29 H2          2.4918    0.2312   -1.5882 H         1 <0>         0.0631
     30 H3          3.2087   -1.9985    2.0825 H         1 <0>         0.0244
     31 H4          4.5368   -1.2418    1.2141 H         1 <0>         0.0244
     32 H5          3.4217   -0.2412    2.1471 H         1 <0>         0.0244
     33 H6          2.5266   -3.1275   -0.1230 H         1 <0>         0.0244
     34 H7          2.1099   -2.1459   -1.5364 H         1 <0>         0.0244
     35 H8          3.7914   -2.2867   -1.0177 H         1 <0>         0.0244
     36 H9         -1.0604    0.7602   -1.2417 H         1 <0>         0.1520
     37 H10        -1.6249    4.7014    0.8704 H         1 <0>         0.0524
     38 H11        -0.2603    4.5590   -0.2492 H         1 <0>         0.0524
     39 H12        -1.7569    3.6073   -0.5184 H         1 <0>         0.0524
     40 H13        -3.1395    0.1391   -1.4680 H         1 <0>         0.0559
     41 H14         5.9627    0.3840   -1.1427 H         1 <0>         0.2951
     42 H15        -3.1449   -2.0452    1.7985 H         1 <0>         0.0626
     43 H16        -2.3781   -2.0325   -2.4940 H         1 <0>         0.0696
     44 H17        -2.3980   -4.5160    1.3085 H         1 <0>         0.0693
     45 H18        -6.0099    1.4555   -0.0668 H         1 <0>         0.2951
@<TRIPOS>BOND
     1    1   12 1
     2    1   15 1
     3    2   26 1
     4    2   27 1
     5    3   13 1
     6    3   21 1
     7    4   16 2
     8    5   19 1
     9    5   41 1
    10    6   19 2
    11    7   20 2
    12    8   24 1
    13    8   45 1
    14    9   24 2
    15   10   12 1
    16   10   14 1
    17   10   16 am
    18   11   13 1
    19   11   20 am
    20   11   36 1
    21   12   13 1
    22   12   28 1
    23   13   16 1
    24   14   15 1
    25   14   19 1
    26   14   29 1
    27   15   17 1
    28   15   18 1
    29   17   30 1
    30   17   31 1
    31   17   32 1
    32   18   33 1
    33   18   34 1
    34   18   35 1
    35   20   22 1
    36   21   37 1
    37   21   38 1
    38   21   39 1
    39   22   23 1
    40   22   24 1
    41   22   40 1
    42   23   25 1
    43   23   26 2
    44   25   27 2
    45   25   42 1
    46   26   43 1
    47   27   44 1
