@<TRIPOS>MOLECULE
DB12924
   48    51     0     0     0
SMALL
USER_CHARGES

@<TRIPOS>ATOM
      1 O1          4.0242   -3.2867    0.4648 O.2       1 <0>        -0.2863
      2 O2          6.4214   -2.5695   -0.3060 O.3       1 <0>        -0.4770
      3 O3          6.9815   -0.4832    0.4447 O.2       1 <0>        -0.2449
      4 N1          2.9655    0.5742   -0.3059 N.pl3     1 <0>        -0.3424
      5 N2         -3.8259   -0.4857   -1.4277 N.ar      1 <0>        -0.2397
      6 N3         -5.8581    0.2019   -0.4157 N.pl3     1 <0>        -0.3319
      7 C1          2.7385    2.0104   -0.5921 C.3       1 <0>         0.0347
      8 C2          2.4831    2.9771    0.5142 C.3       1 <0>        -0.0302
      9 C3          3.7735    3.0278   -0.2501 C.3       1 <0>        -0.0302
     10 C4          1.9303   -0.3865   -0.1232 C.ar      1 <0>         0.0565
     11 C5          4.2861    0.1788   -0.2178 C.2       1 <0>         0.0231
     12 C6          2.2682   -1.7306    0.1455 C.ar      1 <0>         0.0463
     13 C7          0.5676   -0.0548   -0.1988 C.ar      1 <0>        -0.0185
     14 C8          4.7139   -1.0650    0.0316 C.2       1 <0>         0.1220
     15 C9          3.6978   -2.1289    0.2345 C.2       1 <0>         0.2034
     16 C10        -0.4201   -1.0261   -0.0134 C.ar      1 <0>        -0.0115
     17 C11         1.2776   -2.7029    0.3315 C.ar      1 <0>        -0.0483
     18 C12         0.0690    1.3321   -0.4775 C.3       1 <0>        -0.0372
     19 C13        -0.0659   -2.3460    0.2511 C.ar      1 <0>        -0.0529
     20 C14        -1.8331   -0.7012   -0.0880 C.ar      1 <0>         0.0009
     21 C15         6.1565   -1.3067    0.0902 C.2       1 <0>         0.3420
     22 C16        -2.5320   -0.3105    1.0439 C.ar      1 <0>        -0.0464
     23 C17        -2.5124   -0.7741   -1.2887 C.ar      1 <0>         0.0374
     24 C18        -3.8847   -0.0055    0.9411 C.ar      1 <0>        -0.0102
     25 C19        -4.4796   -0.1079   -0.3061 C.ar      1 <0>         0.1214
     26 C20        -4.6394    0.4146    2.1564 C.3       1 <0>        -0.0364
     27 C21        -6.7104   -0.4105   -1.3820 C.3       1 <0>        -0.0011
     28 H1          2.3516    2.1716   -1.5926 H         1 <0>         0.0528
     29 H2          2.5180    2.6181    1.5357 H         1 <0>         0.0286
     30 H3          1.7817    3.7852    0.3455 H         1 <0>         0.0286
     31 H4          3.9131    3.8552   -0.9379 H         1 <0>         0.0286
     32 H5          4.6542    2.8185    0.3431 H         1 <0>         0.0286
     33 H6          5.0206    0.9456   -0.4285 H         1 <0>         0.0819
     34 H7          1.5337   -3.7383    0.5386 H         1 <0>         0.0625
     35 H8          0.4366    1.7038   -1.4343 H         1 <0>         0.0278
     36 H9         -1.0117    1.4324   -0.6007 H         1 <0>         0.0278
     37 H10         0.2839    1.9895    0.3642 H         1 <0>         0.0278
     38 H11        -0.8233   -3.1128    0.3978 H         1 <0>         0.0624
     39 H12        -2.0263   -0.2416    2.0044 H         1 <0>         0.0628
     40 H13        -2.0183   -1.0731   -2.2086 H         1 <0>         0.0836
     41 H14         7.3813   -2.7702   -0.2804 H         1 <0>         0.2954
     42 H15        -4.0281    0.3311    3.0617 H         1 <0>         0.0279
     43 H16        -4.9549    1.4594    2.0692 H         1 <0>         0.0279
     44 H17        -5.5194   -0.2201    2.3062 H         1 <0>         0.0279
     45 H18        -6.2324    0.9288    0.1827 H         1 <0>         0.1471
     46 H19        -6.7000   -1.5009   -1.2832 H         1 <0>         0.0426
     47 H20        -6.4118   -0.1446   -2.4011 H         1 <0>         0.0426
     48 H21        -7.7413   -0.0722   -1.2386 H         1 <0>         0.0426
@<TRIPOS>BOND
     1    1   15 2
     2    2   21 1
     3    2   41 1
     4    3   21 2
     5    4    7 1
     6    4   10 1
     7    4   11 2
     8    5   23 ar
     9    5   25 ar
    10    6   25 1
    11    6   27 1
    12    6   45 1
    13    7    8 1
    14    7    9 1
    15    7   28 1
    16    8    9 1
    17    8   29 1
    18    8   30 1
    19    9   31 1
    20    9   32 1
    21   10   12 ar
    22   10   13 ar
    23   11   14 1
    24   11   33 1
    25   12   15 1
    26   12   17 ar
    27   13   16 ar
    28   13   18 1
    29   14   15 1
    30   14   21 1
    31   16   19 ar
    32   16   20 1
    33   17   19 ar
    34   17   34 1
    35   18   35 1
    36   18   36 1
    37   18   37 1
    38   19   38 1
    39   20   22 ar
    40   20   23 ar
    41   22   24 ar
    42   22   39 1
    43   23   40 1
    44   24   25 ar
    45   24   26 1
    46   26   42 1
    47   26   43 1
    48   26   44 1
    49   27   46 1
    50   27   47 1
    51   27   48 1
