@<TRIPOS>MOLECULE
DB12474
   49    52     0     0     0
SMALL
USER_CHARGES

@<TRIPOS>ATOM
      1 O1          4.5925    1.0509    0.3471 O.3       1 <0>        -0.3760
      2 C1          1.4405   -0.7057   -0.2627 C.3       1 <0>        -0.0289
      3 C2          2.1929    0.4873    0.3688 C.3       1 <0>         0.0111
      4 C3          0.0573   -0.9295    0.3544 C.3       1 <0>        -0.0339
      5 C4         -0.8063    0.3621    0.1487 C.3       1 <0>        -0.0314
      6 C5          1.3641    1.7609    0.1216 C.3       1 <0>        -0.0435
      7 C6          3.5631    0.3784   -0.3662 C.3       1 <0>         0.1317
      8 C7          2.4595   -1.8411   -0.2063 C.3       1 <0>        -0.0458
      9 C8         -0.0750    1.6281    0.6545 C.3       1 <0>        -0.0488
     10 C9         -2.2040    0.1533    0.7993 C.3       1 <0>        -0.0168
     11 C10         3.8272   -1.1504   -0.3850 C.3       1 <0>        -0.0118
     12 C11        -0.6439   -2.1667   -0.2386 C.3       1 <0>        -0.0460
     13 C12         2.4175    0.3420    1.9031 C.3       1 <0>        -0.0558
     14 C13        -2.8327   -1.0688    0.1483 C.2       1 <0>        -0.0701
     15 C14        -2.0551   -2.3435    0.3250 C.3       1 <0>        -0.0312
     16 C15        -3.1496    1.3705    0.7546 C.3       1 <0>        -0.0460
     17 C16        -3.8490    1.5097   -0.5923 C.3       1 <0>        -0.0491
     18 C17         3.5354    0.9053   -1.7451 C.1       1 <0>        -0.0704
     19 C18        -3.9526   -1.0112   -0.5926 C.2       1 <0>        -0.0845
     20 C19        -4.6794    0.2635   -0.8983 C.3       1 <0>        -0.0345
     21 C20         3.5133    1.3341   -2.8660 C.1       1 <0>        -0.1163
     22 H1          1.2709   -0.4954   -1.3306 H         1 <0>         0.0310
     23 H2          0.1627   -1.1140    1.4308 H         1 <0>         0.0307
     24 H3         -0.9485    0.4965   -0.9347 H         1 <0>         0.0309
     25 H4          1.2928    1.9788   -0.9502 H         1 <0>         0.0272
     26 H5          1.8476    2.6309    0.5820 H         1 <0>         0.0272
     27 H6          2.2849   -2.5819   -0.9936 H         1 <0>         0.0269
     28 H7          2.4233   -2.3664    0.7547 H         1 <0>         0.0269
     29 H8         -0.0738    1.6442    1.7502 H         1 <0>         0.0268
     30 H9         -0.6193    2.5237    0.3344 H         1 <0>         0.0268
     31 H10        -2.0466   -0.0703    1.8642 H         1 <0>         0.0348
     32 H11         4.5013   -1.4495    0.4270 H         1 <0>         0.0303
     33 H12         4.3013   -1.4781   -1.3181 H         1 <0>         0.0303
     34 H13        -0.0624   -3.0702   -0.0221 H         1 <0>         0.0271
     35 H14        -0.6949   -2.0755   -1.3315 H         1 <0>         0.0271
     36 H15         1.4848    0.2426    2.4638 H         1 <0>         0.0236
     37 H16         3.0302   -0.5286    2.1570 H         1 <0>         0.0236
     38 H17         2.9298    1.2247    2.3036 H         1 <0>         0.0236
     39 H18        -2.0062   -2.5935    1.3918 H         1 <0>         0.0310
     40 H19        -2.5419   -3.1880   -0.1766 H         1 <0>         0.0310
     41 H20        -2.6331    2.2993    1.0106 H         1 <0>         0.0271
     42 H21        -3.9187    1.2419    1.5292 H         1 <0>         0.0271
     43 H22        -3.1053    1.6680   -1.3829 H         1 <0>         0.0268
     44 H23        -4.5005    2.3909   -0.5884 H         1 <0>         0.0268
     45 H24         4.3393    1.9865    0.4284 H         1 <0>         0.2114
     46 H25        -4.3549   -1.9180   -1.0361 H         1 <0>         0.0572
     47 H26        -4.9618    0.2764   -1.9572 H         1 <0>         0.0307
     48 H27        -5.6093    0.2815   -0.3175 H         1 <0>         0.0307
     49 H28         3.4928    1.7145   -3.8605 H         1 <0>         0.1229
@<TRIPOS>BOND
     1    1    7 1
     2    1   45 1
     3    2    3 1
     4    2    4 1
     5    2    8 1
     6    2   22 1
     7    3    6 1
     8    3    7 1
     9    3   13 1
    10    4    5 1
    11    4   12 1
    12    4   23 1
    13    5    9 1
    14    5   10 1
    15    5   24 1
    16    6    9 1
    17    6   25 1
    18    6   26 1
    19    7   11 1
    20    7   18 1
    21    8   11 1
    22    8   27 1
    23    8   28 1
    24    9   29 1
    25    9   30 1
    26   10   14 1
    27   10   16 1
    28   10   31 1
    29   11   32 1
    30   11   33 1
    31   12   15 1
    32   12   34 1
    33   12   35 1
    34   13   36 1
    35   13   37 1
    36   13   38 1
    37   14   15 1
    38   14   19 2
    39   15   39 1
    40   15   40 1
    41   16   17 1
    42   16   41 1
    43   16   42 1
    44   17   20 1
    45   17   43 1
    46   17   44 1
    47   18   21 3
    48   19   20 1
    49   19   46 1
    50   20   47 1
    51   20   48 1
    52   21   49 1
