@<TRIPOS>MOLECULE
DB12095
   66    69     0     0     0
SMALL
USER_CHARGES

@<TRIPOS>ATOM
      1 Cl1         6.9851   -2.0227   -4.0316 Cl        1 <0>        -0.0835
      2 F1          2.6574   -2.0552    2.7776 F         1 <0>        -0.1665
      3 F2          3.4563   -3.4876    1.3455 F         1 <0>        -0.1665
      4 F3          4.7838   -2.0312    2.2783 F         1 <0>        -0.1665
      5 O1          1.9171   -1.4385    0.1812 O.3       1 <0>        -0.4589
      6 O2         -5.8705   -1.3613    0.4627 O.3       1 <0>        -0.4638
      7 O3         -7.3766   -0.3752    1.9035 O.2       1 <0>        -0.2491
      8 N1          5.7200    0.2419    0.3563 N.pl3     1 <0>        -0.2392
      9 N2          4.9110    1.2833    0.6154 N.2       1 <0>        -0.1717
     10 N3         -8.6003    0.7063   -0.3236 N.3       1 <0>        -0.3181
     11 N4          0.0033    1.8841   -1.2676 N.ar      1 <0>        -0.2145
     12 N5          2.0184    0.6201   -0.8815 N.ar      1 <0>        -0.1796
     13 N6          2.0911    2.7058   -1.9542 N.pl3     1 <0>        -0.3274
     14 C1          3.2538   -1.2475    0.6297 C.3       1 <0>         0.2229
     15 C2          4.2066   -1.4236   -0.5290 C.ar      1 <0>         0.0269
     16 C3          5.3851   -0.6827   -0.6188 C.ar      1 <0>         0.0737
     17 C4         -6.3685    1.7170   -0.3690 C.3       1 <0>        -0.0020
     18 C5         -4.8755    1.5009   -0.4482 C.ar      1 <0>        -0.0453
     19 C6         -7.1688    0.4079   -0.3956 C.3       1 <0>         0.1074
     20 C7          3.5456   -2.2064    1.7704 C.3       1 <0>         0.4308
     21 C8          3.8874   -2.3493   -1.5225 C.ar      1 <0>        -0.0514
     22 C9          6.2442   -0.8674   -1.7020 C.ar      1 <0>        -0.0175
     23 C10        -2.1187    1.1003   -0.5956 C.ar      1 <0>         0.0006
     24 C11        -4.1304    1.3420    0.7203 C.ar      1 <0>        -0.0579
     25 C12        -4.2423    1.4596   -1.6904 C.ar      1 <0>        -0.0579
     26 C13        -0.6894    0.8911   -0.6722 C.ar      1 <0>         0.0796
     27 C14        -2.7521    1.1416    0.6465 C.ar      1 <0>        -0.0523
     28 C15        -2.8639    1.2593   -1.7639 C.ar      1 <0>        -0.0523
     29 C16         1.2637   -0.3341   -0.2981 C.ar      1 <0>         0.2205
     30 C17         4.7464   -2.5340   -2.6057 C.ar      1 <0>        -0.0429
     31 C18         5.9249   -1.7932   -2.6954 C.ar      1 <0>         0.0430
     32 C19         6.8445    0.2122    1.1278 C.2       1 <0>         0.0315
     33 C20        -0.1072   -0.2518   -0.1639 C.ar      1 <0>         0.0261
     34 C21        -6.8374   -0.4591    0.8073 C.2       1 <0>         0.3244
     35 C22         5.5549    1.9326    1.5889 C.2       1 <0>         0.0604
     36 C23         6.7657    1.3108    1.9484 C.2       1 <0>        -0.0208
     37 C24         1.3336    1.6864   -1.3373 C.ar      1 <0>         0.2162
     38 C25         4.9742    3.1604    2.1581 C.3       1 <0>        -0.0206
     39 C26        -5.4784   -2.2710    1.4952 C.3       1 <0>         0.0897
     40 C27        -4.4083   -3.1966    0.9567 C.3       1 <0>        -0.0306
     41 H1          3.2957   -0.2573    1.0834 H         1 <0>         0.0878
     42 H2         -6.5919    2.2845    0.5457 H         1 <0>         0.0334
     43 H3         -6.6785    2.3653   -1.1999 H         1 <0>         0.0334
     44 H4         -6.9769   -0.1555   -1.3164 H         1 <0>         0.0577
     45 H5          2.9838   -2.9506   -1.4717 H         1 <0>         0.0623
     46 H6          7.1625   -0.2884   -1.7804 H         1 <0>         0.0653
     47 H7         -4.6096    1.3765    1.6950 H         1 <0>         0.0620
     48 H8         -4.8128    1.5789   -2.6075 H         1 <0>         0.0620
     49 H9         -2.1890    1.0251    1.5695 H         1 <0>         0.0624
     50 H10        -2.3885    1.2257   -2.7415 H         1 <0>         0.0624
     51 H11         4.4866   -3.2611   -3.3709 H         1 <0>         0.0632
     52 H12         7.5912   -0.5662    1.0417 H         1 <0>         0.0831
     53 H13        -0.6781   -1.0429    0.3079 H         1 <0>         0.0692
     54 H14         7.4831    1.6121    2.6978 H         1 <0>         0.0651
     55 H15        -9.1343   -0.1566   -0.4220 H         1 <0>         0.1190
     56 H16        -8.8663    1.2950   -1.1120 H         1 <0>         0.1190
     57 H17         4.8604    3.9281    1.3859 H         1 <0>         0.0293
     58 H18         3.9885    2.9576    2.5896 H         1 <0>         0.0293
     59 H19         5.6086    3.5721    2.9499 H         1 <0>         0.0293
     60 H20        -5.0846   -1.7070    2.3480 H         1 <0>         0.0694
     61 H21        -6.3473   -2.8564    1.8157 H         1 <0>         0.0694
     62 H22         1.6221    3.5265   -2.3118 H         1 <0>         0.1452
     63 H23         3.0939    2.6033   -2.0282 H         1 <0>         0.1452
     64 H24        -4.7809   -3.7542    0.0911 H         1 <0>         0.0262
     65 H25        -3.5399   -2.6231    0.6154 H         1 <0>         0.0262
     66 H26        -4.0838   -3.9070    1.7221 H         1 <0>         0.0262
@<TRIPOS>BOND
     1    1   31 1
     2    2   20 1
     3    3   20 1
     4    4   20 1
     5    5   14 1
     6    5   29 1
     7    6   34 1
     8    6   39 1
     9    7   34 2
    10    8    9 1
    11    8   16 1
    12    8   32 2
    13    9   35 1
    14   10   19 1
    15   10   55 1
    16   10   56 1
    17   11   26 ar
    18   11   37 ar
    19   12   29 ar
    20   12   37 ar
    21   13   37 1
    22   13   62 1
    23   13   63 1
    24   14   15 1
    25   14   20 1
    26   14   41 1
    27   15   16 ar
    28   15   21 ar
    29   16   22 ar
    30   17   18 1
    31   17   19 1
    32   17   42 1
    33   17   43 1
    34   18   24 ar
    35   18   25 ar
    36   19   34 1
    37   19   44 1
    38   21   30 ar
    39   21   45 1
    40   22   31 ar
    41   22   46 1
    42   23   26 1
    43   23   27 ar
    44   23   28 ar
    45   24   27 ar
    46   24   47 1
    47   25   28 ar
    48   25   48 1
    49   26   33 ar
    50   27   49 1
    51   28   50 1
    52   29   33 ar
    53   30   31 ar
    54   30   51 1
    55   32   36 1
    56   32   52 1
    57   33   53 1
    58   35   36 2
    59   35   38 1
    60   36   54 1
    61   38   57 1
    62   38   58 1
    63   38   59 1
    64   39   40 1
    65   39   60 1
    66   39   61 1
    67   40   64 1
    68   40   65 1
    69   40   66 1
