@<TRIPOS>MOLECULE
DB12473
   33    34     0     0     0
SMALL
USER_CHARGES

@<TRIPOS>ATOM
      1 S1          4.1336   -0.5600    0.2096 S.o2      1 <0>         0.0317
      2 S2         -4.1374   -0.5476   -0.1819 S.o2      1 <0>         0.0317
      3 O1          4.5032    0.2093    1.3816 O.2       1 <0>        -0.1581
      4 O2          5.0595   -1.4995   -0.3908 O.2       1 <0>        -0.1581
      5 O3         -4.5336    0.2523   -1.3243 O.2       1 <0>        -0.1581
      6 O4         -5.0503   -1.5007    0.4165 O.2       1 <0>        -0.1581
      7 N1          1.1726    0.4269   -0.2935 N.3       1 <0>        -0.2739
      8 N2         -1.1627    0.4216    0.2741 N.3       1 <0>        -0.2739
      9 N3          3.5415    0.4959   -1.0066 N.pl3     1 <0>        -0.1802
     10 N4         -3.5136    0.4757    1.0463 N.pl3     1 <0>        -0.1802
     11 C1          0.0022    1.2595   -0.0131 C.3       1 <0>         0.0543
     12 C2          1.4675   -0.4449    0.8559 C.3       1 <0>         0.0222
     13 C3         -1.4874   -0.4197   -0.8897 C.3       1 <0>         0.0222
     14 C4          2.3266    1.2711   -0.6363 C.3       1 <0>         0.0701
     15 C5         -2.3063    1.2585    0.6666 C.3       1 <0>         0.0701
     16 C6          2.6105   -1.4153    0.5612 C.3       1 <0>         0.0945
     17 C7         -2.6251   -1.3957   -0.5925 C.3       1 <0>         0.0945
     18 H1         -0.2081    1.9111   -0.8721 H         1 <0>         0.0596
     19 H2          0.2105    1.9127    0.8453 H         1 <0>         0.0596
     20 H3          0.6050   -1.0683    1.1174 H         1 <0>         0.0444
     21 H4          1.7088    0.1562    1.7426 H         1 <0>         0.0444
     22 H5         -0.6303   -1.0343   -1.1876 H         1 <0>         0.0444
     23 H6         -1.7494    0.2044   -1.7544 H         1 <0>         0.0444
     24 H7          2.5839    1.9578    0.1802 H         1 <0>         0.0609
     25 H8          2.0795    1.8872   -1.5095 H         1 <0>         0.0609
     26 H9         -2.5815    1.9665   -0.1253 H         1 <0>         0.0609
     27 H10        -2.0374    1.8512    1.5495 H         1 <0>         0.0609
     28 H11         2.8003   -2.0595    1.4256 H         1 <0>         0.0528
     29 H12         2.3807   -2.0528   -0.2992 H         1 <0>         0.0528
     30 H13        -2.8370   -2.0170   -1.4684 H         1 <0>         0.0528
     31 H14        -2.3756   -2.0557    0.2454 H         1 <0>         0.0528
     32 H15         3.4880    0.0989   -1.9541 H         1 <0>         0.1491
     33 H16        -3.4380    0.0543    1.9817 H         1 <0>         0.1491
@<TRIPOS>BOND
     1    1    3 2
     2    1    4 2
     3    1    9 1
     4    1   16 1
     5    2    5 2
     6    2    6 2
     7    2   10 1
     8    2   17 1
     9    7   11 1
    10    7   12 1
    11    7   14 1
    12    8   11 1
    13    8   13 1
    14    8   15 1
    15    9   14 1
    16    9   32 1
    17   10   15 1
    18   10   33 1
    19   11   18 1
    20   11   19 1
    21   12   16 1
    22   12   20 1
    23   12   21 1
    24   13   17 1
    25   13   22 1
    26   13   23 1
    27   14   24 1
    28   14   25 1
    29   15   26 1
    30   15   27 1
    31   16   28 1
    32   16   29 1
    33   17   30 1
    34   17   31 1
