@<TRIPOS>MOLECULE
DB12466
   15    15     0     0     0
SMALL
USER_CHARGES

@<TRIPOS>ATOM
      1 F1          2.1055    2.4697    0.0265 F         1 <0>        -0.1823
      2 O1         -0.3075   -2.2642    0.1832 O.2       1 <0>        -0.2654
      3 O2         -2.3087    0.1066    1.7217 O.2       1 <0>        -0.2686
      4 N1          1.6605   -1.0616   -0.0794 N.am      1 <0>        -0.3230
      5 N2          0.1464    1.2476    0.2871 N.2       1 <0>        -0.2078
      6 N3         -2.6534    0.2221   -0.5763 N.am      1 <0>        -0.3239
      7 C1         -0.4439    0.0905    0.3250 C.2       1 <0>         0.1921
      8 C2          0.3087   -1.2107    0.1349 C.2       1 <0>         0.2796
      9 C3          2.2445    0.1699   -0.1133 C.2       1 <0>         0.0594
     10 C4          1.4979    1.2629    0.0651 C.2       1 <0>         0.2302
     11 C5         -1.9136    0.1412    0.5704 C.2       1 <0>         0.2653
     12 H1          2.2447   -1.8805   -0.2170 H         1 <0>         0.1685
     13 H2          3.3117    0.1991   -0.2874 H         1 <0>         0.0853
     14 H3         -3.6665    0.2625   -0.5436 H         1 <0>         0.1453
     15 H4         -2.2263    0.2449   -1.4969 H         1 <0>         0.1453
@<TRIPOS>BOND
     1    1   10 1
     2    2    8 2
     3    3   11 2
     4    4    8 am
     5    4    9 1
     6    4   12 1
     7    5    7 2
     8    5   10 1
     9    6   11 am
    10    6   14 1
    11    6   15 1
    12    7    8 1
    13    7   11 1
    14    9   10 2
    15    9   13 1
