@<TRIPOS>MOLECULE
DB12597
   49    52     0     0     0
SMALL
USER_CHARGES

@<TRIPOS>ATOM
      1 Cl1       -10.4211    0.7037   -0.0686 Cl        1 <0>         0.0004
      2 F1         -8.2773    1.8550    0.7337 F         1 <0>        -0.1486
      3 F2         -8.3340    1.3494   -1.4072 F         1 <0>        -0.1486
      4 O1          6.3031    0.3868    1.0331 O.3       1 <0>        -0.3902
      5 O2         -2.0012   -2.7585    0.4995 O.2       1 <0>        -0.2698
      6 O3         -8.0177   -0.3205    0.1099 O.3       1 <0>        -0.4197
      7 N1          3.8556   -0.7766   -0.3328 N.pl3     1 <0>        -0.3121
      8 N2          2.0207   -2.2148   -0.4062 N.ar      1 <0>        -0.2389
      9 N3          3.1790    1.7070    1.3325 N.pl3     1 <0>        -0.2769
     10 N4          3.5551    2.9964    1.3767 N.2       1 <0>        -0.1818
     11 N5         -2.4553   -0.5163   -0.0228 N.am      1 <0>        -0.2815
     12 C1          6.1630   -0.7179    0.1462 C.3       1 <0>         0.0723
     13 C2          5.9414   -0.2244   -1.2750 C.3       1 <0>        -0.0096
     14 C3          4.8683   -1.4632    0.4717 C.3       1 <0>         0.0396
     15 C4          4.4577    0.1461   -1.2914 C.3       1 <0>         0.0160
     16 C5          2.4974   -0.9679   -0.1927 C.ar      1 <0>         0.1306
     17 C6          1.7070    0.1161    0.1536 C.ar      1 <0>         0.0404
     18 C7          0.3391   -0.0931    0.2896 C.ar      1 <0>        -0.0357
     19 C8          2.2478    1.4371    0.3730 C.2       1 <0>         0.0690
     20 C9         -0.1891   -1.3619    0.0779 C.ar      1 <0>         0.0558
     21 C10         0.6862   -2.3797   -0.2651 C.ar      1 <0>         0.0418
     22 C11         1.9971    2.6333   -0.2539 C.2       1 <0>        -0.0165
     23 C12        -1.6132   -1.6132    0.2128 C.2       1 <0>         0.2497
     24 C13         2.8299    3.5574    0.4054 C.2       1 <0>         0.0497
     25 C14        -3.8705   -0.4661    0.0109 C.ar      1 <0>         0.0339
     26 C15        -4.6019   -1.6157    0.3097 C.ar      1 <0>        -0.0370
     27 C16        -4.5329    0.7325   -0.2546 C.ar      1 <0>        -0.0370
     28 C17        -5.9955   -1.5667    0.3428 C.ar      1 <0>        -0.0179
     29 C18        -5.9264    0.7815   -0.2215 C.ar      1 <0>        -0.0179
     30 C19        -6.6577   -0.3682    0.0772 C.ar      1 <0>         0.1286
     31 C20        -8.6695    0.9195   -0.1660 C.3       1 <0>         0.4893
     32 H1          7.0512   -1.3490    0.2404 H         1 <0>         0.0609
     33 H2          6.1256   -1.0376   -1.9872 H         1 <0>         0.0306
     34 H3          6.5700    0.6303   -1.5415 H         1 <0>         0.0306
     35 H4          4.9339   -2.5087    0.1509 H         1 <0>         0.0489
     36 H5          4.6214   -1.4208    1.5378 H         1 <0>         0.0489
     37 H6          4.3648    1.1939   -1.0062 H         1 <0>         0.0465
     38 H7          4.0391    0.0188   -2.2956 H         1 <0>         0.0465
     39 H8          6.3941    0.0292    1.9328 H         1 <0>         0.2098
     40 H9         -0.2878    0.7393    0.5990 H         1 <0>         0.0633
     41 H10         0.3416   -3.3928   -0.4489 H         1 <0>         0.0838
     42 H11         1.3136    2.8157   -1.0706 H         1 <0>         0.0654
     43 H12         3.6031    1.0635    1.9894 H         1 <0>         0.1889
     44 H13         2.9387    4.6159    0.2179 H         1 <0>         0.0848
     45 H14        -2.0299    0.3658   -0.2942 H         1 <0>         0.1551
     46 H15        -4.1623   -2.5788    0.5260 H         1 <0>         0.0637
     47 H16        -3.9740    1.6353   -0.4880 H         1 <0>         0.0637
     48 H17        -6.5612   -2.4648    0.5762 H         1 <0>         0.0655
     49 H18        -6.3673    1.7475   -0.4365 H         1 <0>         0.0655
@<TRIPOS>BOND
     1    1   31 1
     2    2   31 1
     3    3   31 1
     4    4   12 1
     5    4   39 1
     6    5   23 2
     7    6   30 1
     8    6   31 1
     9    7   14 1
    10    7   15 1
    11    7   16 1
    12    8   16 ar
    13    8   21 ar
    14    9   10 1
    15    9   19 2
    16    9   43 1
    17   10   24 1
    18   11   23 am
    19   11   25 1
    20   11   45 1
    21   12   13 1
    22   12   14 1
    23   12   32 1
    24   13   15 1
    25   13   33 1
    26   13   34 1
    27   14   35 1
    28   14   36 1
    29   15   37 1
    30   15   38 1
    31   16   17 ar
    32   17   18 ar
    33   17   19 1
    34   18   20 ar
    35   18   40 1
    36   19   22 1
    37   20   21 ar
    38   20   23 1
    39   21   41 1
    40   22   24 2
    41   22   42 1
    42   24   44 1
    43   25   26 ar
    44   25   27 ar
    45   26   28 ar
    46   26   46 1
    47   27   29 ar
    48   27   47 1
    49   28   30 ar
    50   28   48 1
    51   29   30 ar
    52   29   49 1
