@<TRIPOS>MOLECULE
DB12153
   57    58     0     0     0
SMALL
USER_CHARGES

@<TRIPOS>ATOM
      1 P1         -3.4448    2.5606   -1.3723 P.3       1 <0>         0.4804
      2 P2         -1.7325    3.7029    0.7553 P.3       1 <0>         0.2223
      3 O1         -2.4995   -2.3240   -0.7903 O.3       1 <0>        -0.3456
      4 O2         -4.1418   -2.1699    1.7134 O.3       1 <0>        -0.3864
      5 O3         -1.6014   -2.3895    2.6809 O.3       1 <0>        -0.3847
      6 O4         -3.7361    1.0755   -0.7993 O.3       1 <0>        -0.2838
      7 O5         -0.1016    3.7880    0.6647 O.3       1 <0>        -0.3218
      8 O6         -2.0480    2.9968   -0.6832 O.3       1 <0>        -0.2292
      9 O7          0.1266   -4.7946    1.1626 O.2       1 <0>        -0.2444
     10 O8         -3.0343    2.3207   -2.9188 O.3       1 <0>        -0.3023
     11 O9         -4.5646    3.5412   -1.1759 O.2       1 <0>        -0.2270
     12 O10        -2.1252    2.7430    1.8575 O.3       1 <0>        -0.4370
     13 O11        -2.2817    5.1128    0.7301 O.2       1 <0>        -0.5170
     14 N1         -0.3381   -2.9889   -0.1973 N.am      1 <0>        -0.2700
     15 N2          2.8538    1.5772    0.5036 N.4       1 <0>         0.2385
     16 N3          1.7986   -4.1101   -0.2115 N.2       1 <0>        -0.1783
     17 N4          3.5081   -3.4028   -1.6205 N.pl3     1 <0>        -0.3430
     18 C1         -3.1706   -1.2517    1.2126 C.3       1 <0>         0.1135
     19 C2         -1.7751   -1.8063    1.4058 C.3       1 <0>         0.1286
     20 C3         -3.2938   -1.2194   -0.3047 C.3       1 <0>         0.1134
     21 C4         -1.6812   -2.8224    0.2806 C.3       1 <0>         0.1680
     22 C5         -2.7542    0.0621   -0.9254 C.3       1 <0>         0.0879
     23 C6          2.0765    2.7994    0.8296 C.3       1 <0>        -0.0064
     24 C7          0.1342   -2.1221   -1.1707 C.2       1 <0>         0.0152
     25 C8          0.5145   -4.0085    0.2962 C.2       1 <0>         0.3522
     26 C9          4.3250    1.7434    0.9080 C.3       1 <0>        -0.0417
     27 C10         2.8025    1.2850   -1.0022 C.3       1 <0>        -0.0417
     28 C11         2.2893    0.3586    1.2462 C.3       1 <0>        -0.0417
     29 C12         0.6384    2.6103    0.3889 C.3       1 <0>         0.0947
     30 C13         1.3658   -2.2024   -1.6706 C.2       1 <0>        -0.0056
     31 C14         2.2285   -3.2847   -1.1294 C.2       1 <0>         0.1230
     32 H1         -3.3287   -0.2896    1.7082 H         1 <0>         0.0647
     33 H2         -1.0376   -1.0030    1.2909 H         1 <0>         0.0665
     34 H3         -4.3271   -1.3875   -0.6293 H         1 <0>         0.0647
     35 H4         -2.0800   -3.7960    0.5899 H         1 <0>         0.0867
     36 H5         -2.5468   -0.0961   -1.9893 H         1 <0>         0.0592
     37 H6         -1.8230    0.3877   -0.4519 H         1 <0>         0.0592
     38 H7         -5.0194   -1.7888    1.5388 H         1 <0>         0.2100
     39 H8         -0.7178   -2.7951    2.6980 H         1 <0>         0.2101
     40 H9          2.1383    2.9844    1.9090 H         1 <0>         0.0838
     41 H10         2.5336    3.6569    0.3207 H         1 <0>         0.0838
     42 H11        -0.5183   -1.3393   -1.5291 H         1 <0>         0.0812
     43 H12         4.7348    2.5941    0.3559 H         1 <0>         0.0778
     44 H13         4.3617    1.9294    1.9853 H         1 <0>         0.0778
     45 H14         4.8654    0.8258    0.6574 H         1 <0>         0.0778
     46 H15         3.0631    2.2004   -1.5412 H         1 <0>         0.0778
     47 H16         3.5336    0.4997   -1.2197 H         1 <0>         0.0778
     48 H17         1.8096    0.9252   -1.2804 H         1 <0>         0.0778
     49 H18         2.2004    0.6107    2.3069 H         1 <0>         0.0778
     50 H19         1.3236    0.0763    0.8220 H         1 <0>         0.0778
     51 H20         2.9885   -0.4735    1.1137 H         1 <0>         0.0778
     52 H21         0.5470    2.4455   -0.6866 H         1 <0>         0.0618
     53 H22         0.1526    1.7850    0.9140 H         1 <0>         0.0618
     54 H23         1.7430   -1.5269   -2.4267 H         1 <0>         0.0666
     55 H24        -2.9368    3.0976   -3.5096 H         1 <0>         0.2220
     56 H25         4.1318   -4.1264   -1.2797 H         1 <0>         0.1437
     57 H26         3.8713   -2.7764   -2.3314 H         1 <0>         0.1437
@<TRIPOS>BOND
     1    1    6 1
     2    1    8 1
     3    1   10 1
     4    1   11 2
     5    2    7 1
     6    2    8 1
     7    2   12 1
     8    2   13 2
     9    3   20 1
    10    3   21 1
    11    4   18 1
    12    4   38 1
    13    5   19 1
    14    5   39 1
    15    6   22 1
    16    7   29 1
    17    9   25 2
    18   10   55 1
    19   14   21 1
    20   14   24 1
    21   14   25 am
    22   15   23 1
    23   15   26 1
    24   15   27 1
    25   15   28 1
    26   16   25 1
    27   16   31 2
    28   17   31 1
    29   17   56 1
    30   17   57 1
    31   18   19 1
    32   18   20 1
    33   18   32 1
    34   19   21 1
    35   19   33 1
    36   20   22 1
    37   20   34 1
    38   21   35 1
    39   22   36 1
    40   22   37 1
    41   23   29 1
    42   23   40 1
    43   23   41 1
    44   24   30 2
    45   24   42 1
    46   26   43 1
    47   26   44 1
    48   26   45 1
    49   27   46 1
    50   27   47 1
    51   27   48 1
    52   28   49 1
    53   28   50 1
    54   28   51 1
    55   29   52 1
    56   29   53 1
    57   30   31 1
    58   30   54 1
