@<TRIPOS>MOLECULE
DB12942
   47    47     0     0     0
SMALL
USER_CHARGES

@<TRIPOS>ATOM
      1 O1         -1.2881   -0.6684    0.2264 O.3       1 <0>        -0.3405
      2 O2          0.4483    0.5184   -0.7863 O.3       1 <0>        -0.3402
      3 O3         -1.2619    2.7741   -1.0232 O.3       1 <0>        -0.3841
      4 O4         -4.0657    2.0747   -1.1474 O.3       1 <0>        -0.3864
      5 O5         -3.8317   -0.6945   -1.0729 O.3       1 <0>        -0.3865
      6 O6          3.1292    0.2413   -1.7395 O.3       1 <0>        -0.3865
      7 O7          2.5332    2.4815   -0.7318 O.3       1 <0>        -0.3869
      8 O8         -1.8409   -2.6501    2.0450 O.3       1 <0>        -0.3924
      9 O9          3.2530   -2.5421   -1.5916 O.3       1 <0>        -0.3869
     10 O10         3.6015    3.2161    1.7108 O.3       1 <0>        -0.3924
     11 O11         1.2613   -3.9613   -0.2713 O.3       1 <0>        -0.3924
     12 C1         -1.7554    1.4398   -0.9048 C.3       1 <0>         0.1341
     13 C2         -3.1369    1.4707   -0.2514 C.3       1 <0>         0.1141
     14 C3         -0.7721    0.6319   -0.0550 C.3       1 <0>         0.1884
     15 C4         -3.6015    0.0616    0.1177 C.3       1 <0>         0.1119
     16 C5         -2.5232   -0.6379    0.9526 C.3       1 <0>         0.1130
     17 C6          1.5715    0.4280    0.0894 C.3       1 <0>         0.1179
     18 C7          2.6530   -0.4380   -0.5783 C.3       1 <0>         0.1118
     19 C8          2.0557    1.8442    0.4599 C.3       1 <0>         0.1069
     20 C9         -2.8912   -2.0790    1.2854 C.3       1 <0>         0.0730
     21 C10         2.1659   -1.8489   -0.9652 C.3       1 <0>         0.1065
     22 C11         3.2027    1.8688    1.4691 C.3       1 <0>         0.0727
     23 C12         1.7150   -2.7020    0.2186 C.3       1 <0>         0.0727
     24 H1         -1.8103    1.0315   -1.9212 H         1 <0>         0.0671
     25 H2         -3.1096    2.0946    0.6510 H         1 <0>         0.0648
     26 H3         -0.6016    1.1636    0.8911 H         1 <0>         0.0938
     27 H4         -4.5549    0.1061    0.6548 H         1 <0>         0.0647
     28 H5         -2.3482   -0.0938    1.8901 H         1 <0>         0.0647
     29 H6          1.2750   -0.0740    1.0195 H         1 <0>         0.0650
     30 H7          3.5179   -0.5468    0.0848 H         1 <0>         0.0647
     31 H8          1.2319    2.4671    0.8242 H         1 <0>         0.0643
     32 H9         -3.8126   -2.1258    1.8734 H         1 <0>         0.0584
     33 H10        -3.0153   -2.6913    0.3865 H         1 <0>         0.0584
     34 H11         1.3767   -1.7859   -1.7234 H         1 <0>         0.0643
     35 H12        -1.8275    3.2423   -1.6599 H         1 <0>         0.2101
     36 H13        -3.8083    3.0055   -1.2576 H         1 <0>         0.2100
     37 H14        -2.9729   -0.8762   -1.4902 H         1 <0>         0.2100
     38 H15         2.9114    1.4111    2.4192 H         1 <0>         0.0584
     39 H16         4.0890    1.3558    1.0866 H         1 <0>         0.0584
     40 H17         0.9041   -2.2423    0.7829 H         1 <0>         0.0584
     41 H18         2.5495   -2.9007    0.8982 H         1 <0>         0.0584
     42 H19         2.3789    0.3407   -2.3504 H         1 <0>         0.2100
     43 H20         1.8004    2.4840   -1.3713 H         1 <0>         0.2100
     44 H21        -1.0512   -2.6683    1.4804 H         1 <0>         0.2095
     45 H22         2.9280   -3.4222   -1.8482 H         1 <0>         0.2100
     46 H23         2.8311    3.6876    2.0709 H         1 <0>         0.2095
     47 H24         0.4967   -3.7915   -0.8477 H         1 <0>         0.2095
@<TRIPOS>BOND
     1    1   14 1
     2    1   16 1
     3    2   14 1
     4    2   17 1
     5    3   12 1
     6    3   35 1
     7    4   13 1
     8    4   36 1
     9    5   15 1
    10    5   37 1
    11    6   18 1
    12    6   42 1
    13    7   19 1
    14    7   43 1
    15    8   20 1
    16    8   44 1
    17    9   21 1
    18    9   45 1
    19   10   22 1
    20   10   46 1
    21   11   23 1
    22   11   47 1
    23   12   13 1
    24   12   14 1
    25   12   24 1
    26   13   15 1
    27   13   25 1
    28   14   26 1
    29   15   16 1
    30   15   27 1
    31   16   20 1
    32   16   28 1
    33   17   18 1
    34   17   19 1
    35   17   29 1
    36   18   21 1
    37   18   30 1
    38   19   22 1
    39   19   31 1
    40   20   32 1
    41   20   33 1
    42   21   23 1
    43   21   34 1
    44   22   38 1
    45   22   39 1
    46   23   40 1
    47   23   41 1
