@<TRIPOS>MOLECULE
DB12667
   24    24     0     0     0
SMALL
USER_CHARGES

@<TRIPOS>ATOM
      1 S1          2.8709    2.3832   -0.4681 S.3       1 <0>        -0.1235
      2 N1         -0.2082   -1.9709    0.1377 N.ar      1 <0>        -0.2598
      3 N2          4.3210    0.3209    0.2879 N.2       1 <0>        -0.2925
      4 C1         -1.7231   -0.1750    0.7187 C.3       1 <0>        -0.0106
      5 C2         -2.5032    0.2495   -0.5330 C.3       1 <0>        -0.0505
      6 C3         -0.3468   -0.6503    0.3918 C.ar      1 <0>         0.0419
      7 C4          0.6981    0.2592    0.3614 C.ar      1 <0>        -0.0307
      8 C5         -3.9156    0.7003   -0.1961 C.3       1 <0>        -0.0649
      9 C6          1.9667   -0.2172    0.0502 C.ar      1 <0>         0.0090
     10 C7          2.1492   -1.5694   -0.2174 C.ar      1 <0>        -0.0339
     11 C8          1.0395   -2.3972   -0.1610 C.ar      1 <0>         0.0285
     12 C9          3.0986    0.6944    0.0051 C.2       1 <0>         0.0923
     13 H1         -2.2657   -0.9813    1.2293 H         1 <0>         0.0328
     14 H2         -1.6764    0.6558    1.4340 H         1 <0>         0.0328
     15 H3         -1.9774    1.0664   -1.0424 H         1 <0>         0.0266
     16 H4         -2.5531   -0.5852   -1.2430 H         1 <0>         0.0266
     17 H5          0.5086    1.3012    0.5956 H         1 <0>         0.0642
     18 H6         -4.4814   -0.1070    0.2798 H         1 <0>         0.0230
     19 H7         -3.9008    1.5577    0.4842 H         1 <0>         0.0230
     20 H8         -4.4465    0.9971   -1.1061 H         1 <0>         0.0230
     21 H9          3.1201   -1.9827   -0.4695 H         1 <0>         0.0639
     22 H10         1.1280   -3.4595   -0.3628 H         1 <0>         0.0830
     23 H11         4.1433    2.7904   -0.3608 H         1 <0>         0.1086
     24 H12         4.9542    1.1195    0.1844 H         1 <0>         0.1873
@<TRIPOS>BOND
     1    1   12 1
     2    1   23 1
     3    2    6 ar
     4    2   11 ar
     5    3   12 2
     6    3   24 1
     7    4    5 1
     8    4    6 1
     9    4   13 1
    10    4   14 1
    11    5    8 1
    12    5   15 1
    13    5   16 1
    14    6    7 ar
    15    7    9 ar
    16    7   17 1
    17    8   18 1
    18    8   19 1
    19    8   20 1
    20    9   10 ar
    21    9   12 1
    22   10   11 ar
    23   10   21 1
    24   11   22 1
