@<TRIPOS>MOLECULE
DB12377
   43    45     0     0     0
SMALL
USER_CHARGES

@<TRIPOS>ATOM
      1 S1          5.6125   -1.8575    0.2316 S.o2      1 <0>         0.0201
      2 O1          4.7139   -0.5646    0.7292 O.3       1 <0>        -0.1373
      3 O2          2.3925   -0.8282    2.4912 O.2       1 <0>        -0.2502
      4 O3         -0.4278    2.5265   -0.7118 O.2       1 <0>        -0.2738
      5 O4          4.7310   -3.0059    0.4393 O.3       1 <0>        -0.2667
      6 O5          6.7843   -1.8399    1.1061 O.2       1 <0>        -0.3435
      7 O6          5.9106   -1.5663   -1.1704 O.2       1 <0>        -0.3435
      8 N1          1.1815   -0.1937    0.5013 N.am      1 <0>        -0.2704
      9 N2          3.3823   -0.6496    0.3497 N.am      1 <0>        -0.1358
     10 N3         -1.4673    0.8027    0.4577 N.am      1 <0>        -0.3105
     11 N4         -4.2041   -1.5506   -0.1349 N.4       1 <0>         0.2271
     12 C1          2.9603   -0.0146   -0.8901 C.3       1 <0>         0.0725
     13 C2          0.8695    1.2006    0.7885 C.3       1 <0>         0.1038
     14 C3          1.5140   -0.4760   -0.8943 C.3       1 <0>         0.0381
     15 C4          2.9393    1.5326   -0.7853 C.3       1 <0>        -0.0282
     16 C5          2.0736    2.0891    0.3853 C.3       1 <0>        -0.0239
     17 C6         -2.8033    0.9894   -0.0608 C.3       1 <0>         0.0328
     18 C7          2.3323   -0.6648    1.2819 C.2       1 <0>         0.3304
     19 C8         -0.3928    1.5917    0.0842 C.2       1 <0>         0.2338
     20 C9         -2.9986    0.2053   -1.3626 C.3       1 <0>         0.0060
     21 C10        -3.8620    0.6145    0.9827 C.3       1 <0>         0.0060
     22 C11        -3.9841   -0.8903    1.1856 C.3       1 <0>        -0.0320
     23 C12        -3.1197   -1.2947   -1.1285 C.3       1 <0>        -0.0320
     24 H1          3.5372   -0.3714   -1.7461 H         1 <0>         0.0542
     25 H2          0.6987    1.3085    1.8678 H         1 <0>         0.0597
     26 H3          0.8619    0.0396   -1.6041 H         1 <0>         0.0484
     27 H4          1.4351   -1.5591   -1.0511 H         1 <0>         0.0484
     28 H5          2.5437    1.9365   -1.7258 H         1 <0>         0.0285
     29 H6          3.9620    1.9138   -0.6807 H         1 <0>         0.0285
     30 H7          2.7383    2.1465    1.2593 H         1 <0>         0.0288
     31 H8          1.7832    3.1256    0.1799 H         1 <0>         0.0288
     32 H9         -2.9121    2.0573   -0.2882 H         1 <0>         0.0502
     33 H10        -4.8339    1.0047    0.6533 H         1 <0>         0.0335
     34 H11        -3.6381    1.0940    1.9430 H         1 <0>         0.0335
     35 H12        -2.1733    0.3981   -2.0583 H         1 <0>         0.0335
     36 H13        -3.9139    0.5604   -1.8539 H         1 <0>         0.0335
     37 H14        -1.2998    0.0201    1.0834 H         1 <0>         0.1490
     38 H15        -4.8453   -1.1388    1.8130 H         1 <0>         0.0814
     39 H16        -2.1983   -1.7307   -0.7288 H         1 <0>         0.0814
     40 H17        -3.3979   -1.8210   -2.0464 H         1 <0>         0.0814
     41 H18        -3.0834   -1.3297    1.6251 H         1 <0>         0.0814
     42 H19        -4.2957   -2.5658    0.0084 H         1 <0>         0.2013
     43 H20        -5.1063   -1.2443   -0.5255 H         1 <0>         0.2013
@<TRIPOS>BOND
     1    1    2 1
     2    1    5 1
     3    1    6 2
     4    1    7 2
     5    2    9 1
     6    3   18 2
     7    4   19 2
     8    8   13 1
     9    8   14 1
    10    8   18 am
    11    9   12 1
    12    9   18 am
    13   10   17 1
    14   10   19 am
    15   10   37 1
    16   11   22 1
    17   11   23 1
    18   11   42 1
    19   11   43 1
    20   12   14 1
    21   12   15 1
    22   12   24 1
    23   13   16 1
    24   13   19 1
    25   13   25 1
    26   14   26 1
    27   14   27 1
    28   15   16 1
    29   15   28 1
    30   15   29 1
    31   16   30 1
    32   16   31 1
    33   17   20 1
    34   17   21 1
    35   17   32 1
    36   20   23 1
    37   20   35 1
    38   20   36 1
    39   21   22 1
    40   21   33 1
    41   21   34 1
    42   22   38 1
    43   22   41 1
    44   23   39 1
    45   23   40 1
