@<TRIPOS>MOLECULE
DB12278
   56    58     0     0     0
SMALL
USER_CHARGES

@<TRIPOS>ATOM
      1 O1         -0.8217    0.1095    0.4861 O.3       1 <0>        -0.4588
      2 O2          1.7149    0.6552    1.1177 O.3       1 <0>        -0.3535
      3 O3          0.0236    0.5170   -1.6135 O.2       1 <0>        -0.2468
      4 N1         -4.9200   -0.1650   -0.3192 N.3       1 <0>        -0.3051
      5 C1         -2.1065    0.5338    0.0492 C.3       1 <0>         0.1055
      6 C2         -2.5826   -0.3452   -1.1039 C.3       1 <0>        -0.0028
      7 C3         -3.0827    0.4456    1.2180 C.3       1 <0>        -0.0028
      8 C4         -4.0297   -0.0306   -1.4811 C.3       1 <0>         0.0019
      9 C5         -4.5148    0.7356    0.7697 C.3       1 <0>         0.0019
     10 C6          1.4946   -0.3716    0.1292 C.3       1 <0>         0.2158
     11 C7         -6.3074    0.0915   -0.7055 C.3       1 <0>        -0.0128
     12 C8          0.1786    0.1478   -0.4554 C.2       1 <0>         0.3490
     13 C9          2.6520   -0.3998   -0.8719 C.ar      1 <0>        -0.0006
     14 C10         1.3388   -1.7274    0.8217 C.ar      1 <0>        -0.0006
     15 C11         1.8085    1.9266    0.5068 C.3       1 <0>         0.0497
     16 C12         2.3899   -0.7685   -2.1711 C.ar      1 <0>        -0.0550
     17 C13         2.0318   -1.9543    1.9884 C.ar      1 <0>        -0.0550
     18 C14         3.9099   -0.0552   -0.4340 C.ar      1 <0>        -0.0550
     19 C15         0.5114   -2.6672    0.2514 C.ar      1 <0>        -0.0550
     20 C16         2.0402    2.9742    1.5849 C.3       1 <0>        -0.0322
     21 C17         3.4447   -0.7941   -3.0836 C.ar      1 <0>        -0.0614
     22 C18         1.8897   -3.1899    2.6200 C.ar      1 <0>        -0.0614
     23 C19         4.9647   -0.0807   -1.3465 C.ar      1 <0>        -0.0614
     24 C20         0.3693   -3.9027    0.8830 C.ar      1 <0>        -0.0614
     25 C21         4.7319   -0.4501   -2.6713 C.ar      1 <0>        -0.0617
     26 C22         1.0585   -4.1640    2.0673 C.ar      1 <0>        -0.0617
     27 C23         2.1367    4.3727    1.0020 C.3       1 <0>        -0.0632
     28 H1         -2.0413    1.5808   -0.2761 H         1 <0>         0.0734
     29 H2         -2.4942   -1.4029   -0.8202 H         1 <0>         0.0313
     30 H3         -1.9899   -0.2370   -2.0140 H         1 <0>         0.0313
     31 H4         -2.7834    1.1493    2.0042 H         1 <0>         0.0313
     32 H5         -3.0258   -0.5513    1.6754 H         1 <0>         0.0313
     33 H6         -4.0892    0.9804   -1.9054 H         1 <0>         0.0428
     34 H7         -4.3391   -0.7321   -2.2656 H         1 <0>         0.0428
     35 H8         -4.5982    1.7857    0.4602 H         1 <0>         0.0428
     36 H9         -5.1775    0.5964    1.6324 H         1 <0>         0.0428
     37 H10        -6.9782   -0.0575    0.1479 H         1 <0>         0.0391
     38 H11        -6.6271   -0.6126   -1.4817 H         1 <0>         0.0391
     39 H12        -6.4507    1.1103   -1.0834 H         1 <0>         0.0391
     40 H13         0.8803    2.2320    0.0132 H         1 <0>         0.0560
     41 H14         2.6162    2.0178   -0.2229 H         1 <0>         0.0560
     42 H15         1.4181   -1.1038   -2.5151 H         1 <0>         0.0621
     43 H16         2.6907   -1.2141    2.4308 H         1 <0>         0.0621
     44 H17         4.1225    0.2115    0.5966 H         1 <0>         0.0621
     45 H18        -0.0222   -2.4902   -0.6767 H         1 <0>         0.0621
     46 H19         2.9590    2.7374    2.1348 H         1 <0>         0.0285
     47 H20         1.2281    2.9331    2.3209 H         1 <0>         0.0285
     48 H21         3.2669   -1.0965   -4.1115 H         1 <0>         0.0618
     49 H22         2.4280   -3.3945    3.5408 H         1 <0>         0.0618
     50 H23         5.9684    0.1808   -1.0242 H         1 <0>         0.0618
     51 H24        -0.2753   -4.6626    0.4509 H         1 <0>         0.0618
     52 H25         5.5541   -0.4747   -3.3805 H         1 <0>         0.0618
     53 H26         0.9489   -5.1265    2.5582 H         1 <0>         0.0618
     54 H27         1.2135    4.6470    0.4816 H         1 <0>         0.0230
     55 H28         2.3061    5.1038    1.7987 H         1 <0>         0.0230
     56 H29         2.9669    4.4466    0.2923 H         1 <0>         0.0230
@<TRIPOS>BOND
     1    1    5 1
     2    1   12 1
     3    2   10 1
     4    2   15 1
     5    3   12 2
     6    4    8 1
     7    4    9 1
     8    4   11 1
     9    5    6 1
    10    5    7 1
    11    5   28 1
    12    6    8 1
    13    6   29 1
    14    6   30 1
    15    7    9 1
    16    7   31 1
    17    7   32 1
    18    8   33 1
    19    8   34 1
    20    9   35 1
    21    9   36 1
    22   10   12 1
    23   10   13 1
    24   10   14 1
    25   11   37 1
    26   11   38 1
    27   11   39 1
    28   13   16 ar
    29   13   18 ar
    30   14   17 ar
    31   14   19 ar
    32   15   20 1
    33   15   40 1
    34   15   41 1
    35   16   21 ar
    36   16   42 1
    37   17   22 ar
    38   17   43 1
    39   18   23 ar
    40   18   44 1
    41   19   24 ar
    42   19   45 1
    43   20   27 1
    44   20   46 1
    45   20   47 1
    46   21   25 ar
    47   21   48 1
    48   22   26 ar
    49   22   49 1
    50   23   25 ar
    51   23   50 1
    52   24   26 ar
    53   24   51 1
    54   25   52 1
    55   26   53 1
    56   27   54 1
    57   27   55 1
    58   27   56 1
