@<TRIPOS>MOLECULE
DB12301
   40    42     0     0     0
SMALL
USER_CHARGES

@<TRIPOS>ATOM
      1 Cl1        -2.9186   -1.8454   -3.1207 Cl        1 <0>        -0.0834
      2 F1         -0.4663    4.5590   -1.3965 F         1 <0>        -0.1658
      3 F2         -2.1467    3.2005   -1.6847 F         1 <0>        -0.1658
      4 F3         -1.9834    4.3567    0.1560 F         1 <0>        -0.1658
      5 O1         -2.3898    1.4404    0.7332 O.3       1 <0>        -0.4499
      6 O2         -0.6679   -0.4386    1.7578 O.2       1 <0>        -0.2636
      7 O3          4.9212   -2.4135   -1.8039 O.2       1 <0>        -0.2450
      8 N1          1.2244    0.6347    0.9133 N.am      1 <0>        -0.3048
      9 N2          3.8975   -1.2312   -0.0551 N.am      1 <0>        -0.2811
     10 N3          1.7969   -1.8932   -0.4373 N.2       1 <0>        -0.1546
     11 N4          2.6202   -2.4670   -1.3597 N.am      1 <0>        -0.2265
     12 N5         -6.2477   -2.8096    1.9772 N.1       1 <0>        -0.1909
     13 C1          2.1399   -0.3625    1.4559 C.3       1 <0>         0.0860
     14 C2          2.5965   -1.1810    0.3021 C.cat     1 <0>         0.1536
     15 C3         -0.1495    0.4850    1.1311 C.2       1 <0>         0.2947
     16 C4         -1.0286    1.5521    0.5406 C.2       1 <0>         0.2042
     17 C5         -0.4863    2.5720   -0.1485 C.2       1 <0>         0.1037
     18 C6          1.7394    1.6996    0.1991 C.2       1 <0>         0.0092
     19 C7          0.9490    2.6430   -0.3219 C.2       1 <0>        -0.0301
     20 C8          3.9479   -2.0723   -1.1482 C.2       1 <0>         0.3439
     21 C9         -1.2785    3.6826   -0.7738 C.3       1 <0>         0.4210
     22 C10         5.0084   -0.5456    0.5769 C.3       1 <0>         0.0179
     23 C11        -2.9929    0.3171    0.2433 C.ar      1 <0>         0.1313
     24 C12        -3.9170   -0.3757    1.0253 C.ar      1 <0>        -0.0019
     25 C13        -2.6843   -0.1374   -1.0388 C.ar      1 <0>        -0.0009
     26 C14        -4.5327   -1.5231    0.5251 C.ar      1 <0>         0.0566
     27 C15        -3.3000   -1.2848   -1.5389 C.ar      1 <0>         0.0457
     28 C16        -4.2243   -1.9777   -0.7569 C.ar      1 <0>        -0.0258
     29 C17        -5.4792   -2.2330    1.3264 C.1       1 <0>         0.0993
     30 H1          1.6263   -1.0186    2.1658 H         1 <0>         0.0574
     31 H2          2.9491    0.1453    1.9856 H         1 <0>         0.0574
     32 H3          2.8154    1.7435    0.0808 H         1 <0>         0.0810
     33 H4          1.3983    3.4610   -0.8731 H         1 <0>         0.0639
     34 H5          5.0630   -0.8493    1.6260 H         1 <0>         0.0458
     35 H6          4.8406    0.5331    0.5287 H         1 <0>         0.0458
     36 H7          5.9434   -0.7965    0.0698 H         1 <0>         0.0458
     37 H8          2.2498   -3.0839   -2.0712 H         1 <0>         0.1937
     38 H9         -4.1505   -0.0139    2.0244 H         1 <0>         0.0667
     39 H10        -1.9790    0.4009   -1.6670 H         1 <0>         0.0669
     40 H11        -4.7040   -2.8728   -1.1481 H         1 <0>         0.0645
@<TRIPOS>BOND
     1    1   27 1
     2    2   21 1
     3    3   21 1
     4    4   21 1
     5    5   16 1
     6    5   23 1
     7    6   15 2
     8    7   20 2
     9    8   13 1
    10    8   15 am
    11    8   18 1
    12    9   14 2
    13    9   20 am
    14    9   22 1
    15   10   11 2
    16   10   14 1
    17   11   20 am
    18   11   37 1
    19   12   29 3
    20   13   14 1
    21   13   30 1
    22   13   31 1
    23   15   16 1
    24   16   17 2
    25   17   19 1
    26   17   21 1
    27   18   19 2
    28   18   32 1
    29   19   33 1
    30   22   34 1
    31   22   35 1
    32   22   36 1
    33   23   24 ar
    34   23   25 ar
    35   24   26 ar
    36   24   38 1
    37   25   27 ar
    38   25   39 1
    39   26   28 ar
    40   26   29 1
    41   27   28 ar
    42   28   40 1
