@<TRIPOS>MOLECULE
DB12243
   23    24     0     0     0
SMALL
USER_CHARGES

@<TRIPOS>ATOM
      1 O1          0.4171   -2.4580   -0.7271 O.2       1 <0>        -0.2731
      2 N1          0.3347   -0.1856   -0.0545 N.am      1 <0>        -0.1606
      3 N2          1.2411    0.8067    0.2482 N.2       1 <0>        -0.1814
      4 C1          2.4125   -1.1348   -0.3166 C.3       1 <0>         0.0658
      5 C2          2.4224    0.2958    0.1071 C.2       1 <0>         0.0432
      6 C3          0.9380   -1.4022   -0.4096 C.2       1 <0>         0.2449
      7 C4         -1.0378   -0.0008   -0.0125 C.ar      1 <0>         0.0600
      8 C5          3.6891    1.0410    0.3402 C.3       1 <0>        -0.0243
      9 C6         -1.8865   -1.0716    0.2921 C.ar      1 <0>        -0.0384
     10 C7         -1.5904    1.2585   -0.2736 C.ar      1 <0>        -0.0384
     11 C8         -3.2682   -0.8857    0.3347 C.ar      1 <0>        -0.0599
     12 C9         -2.9721    1.4443   -0.2310 C.ar      1 <0>        -0.0599
     13 C10        -3.8110    0.3722    0.0733 C.ar      1 <0>        -0.0616
     14 H1          2.8912   -1.2523   -1.2905 H         1 <0>         0.0420
     15 H2          2.8748   -1.7660    0.4443 H         1 <0>         0.0420
     16 H3          4.2607    0.5456    1.1292 H         1 <0>         0.0290
     17 H4          3.4769    2.0702    0.6406 H         1 <0>         0.0290
     18 H5          4.2795    1.0483   -0.5797 H         1 <0>         0.0290
     19 H6         -1.5108   -2.0569    0.5492 H         1 <0>         0.0637
     20 H7         -0.9579    2.1082   -0.5193 H         1 <0>         0.0637
     21 H8         -3.9214   -1.7176    0.5821 H         1 <0>         0.0618
     22 H9         -3.3953    2.4235   -0.4354 H         1 <0>         0.0618
     23 H10        -4.8867    0.5175    0.1087 H         1 <0>         0.0618
@<TRIPOS>BOND
     1    1    6 2
     2    2    3 1
     3    2    6 am
     4    2    7 1
     5    3    5 2
     6    4    5 1
     7    4    6 1
     8    4   14 1
     9    4   15 1
    10    5    8 1
    11    7    9 ar
    12    7   10 ar
    13    8   16 1
    14    8   17 1
    15    8   18 1
    16    9   11 ar
    17    9   19 1
    18   10   12 ar
    19   10   20 1
    20   11   13 ar
    21   11   21 1
    22   12   13 ar
    23   12   22 1
    24   13   23 1
