@<TRIPOS>MOLECULE
DB12529
    3     2     0     0     0
SMALL
USER_CHARGES

@<TRIPOS>ATOM
      1 O1          1.1533    0.2461    0.0000 O.3       1 <0>        -0.7609
      2 O2         -1.1149    0.2725    0.0000 O.2       1 <0>        -0.1527
      3 N1         -0.0384   -0.5186    0.0000 N.pl3     1 <0>        -0.0864
@<TRIPOS>BOND
     1    1    3 1
     2    2    3 2
