@<TRIPOS>MOLECULE
DB12783
   33    33     0     0     0
SMALL
USER_CHARGES

@<TRIPOS>ATOM
      1 O1          1.7441   -2.0371    0.5340 O.3       1 <0>        -0.5030
      2 O2         -5.0060    0.1879   -1.9965 O.3       1 <0>        -0.3930
      3 O3          4.3936   -2.3342   -0.1667 O.3       1 <0>        -0.5009
      4 O4         -2.4228   -1.1983   -0.9452 O.2       1 <0>        -0.2727
      5 O5          5.9511   -0.0972   -0.6508 O.3       1 <0>        -0.5032
      6 N1         -0.3433    0.5501   -0.3884 N.3       1 <0>        -0.2361
      7 N2         -1.6540    0.7819   -0.0052 N.am      1 <0>        -0.2493
      8 N3         -4.1014   -0.2808    1.5433 N.3       1 <0>        -0.3181
      9 C1          0.5260    0.5232    0.7800 C.3       1 <0>         0.0423
     10 C2          1.9713    0.3392    0.4000 C.ar      1 <0>         0.0133
     11 C3         -4.0035    0.2495    0.1856 C.3       1 <0>         0.1068
     12 C4          2.5111   -0.9355    0.2930 C.ar      1 <0>         0.1665
     13 C5         -2.6251   -0.1528   -0.3302 C.2       1 <0>         0.2456
     14 C6          2.7477    1.4652    0.1589 C.ar      1 <0>        -0.0501
     15 C7         -5.1241   -0.3288   -0.6753 C.3       1 <0>         0.0679
     16 C8          3.8518   -1.0872   -0.0613 C.ar      1 <0>         0.2009
     17 C9          4.0881    1.3136   -0.1955 C.ar      1 <0>        -0.0160
     18 C10         4.6401    0.0374   -0.3056 C.ar      1 <0>         0.1620
     19 H1          0.2174   -0.2744    1.4685 H         1 <0>         0.0491
     20 H2          0.4263    1.4564    1.3519 H         1 <0>         0.0491
     21 H3         -4.0812    1.3429    0.1982 H         1 <0>         0.0578
     22 H4         -0.0781    1.3258   -0.9950 H         1 <0>         0.1446
     23 H5          2.3284    2.4643    0.2394 H         1 <0>         0.0623
     24 H6         -1.8654    1.6389    0.4967 H         1 <0>         0.1690
     25 H7         -6.1052   -0.0359   -0.2869 H         1 <0>         0.0577
     26 H8         -5.0926   -1.4227   -0.7312 H         1 <0>         0.0577
     27 H9          4.6908    2.1981   -0.3832 H         1 <0>         0.0655
     28 H10        -3.3362    0.0769    2.1137 H         1 <0>         0.1190
     29 H11        -4.0106   -1.2961    1.5338 H         1 <0>         0.1190
     30 H12         2.2956   -2.8289    0.4102 H         1 <0>         0.2923
     31 H13        -4.1997   -0.1854   -2.3909 H         1 <0>         0.2095
     32 H14         5.3287   -2.2424   -0.4194 H         1 <0>         0.2924
     33 H15         6.3370    0.7862   -0.7801 H         1 <0>         0.2923
@<TRIPOS>BOND
     1    1   12 1
     2    1   30 1
     3    2   15 1
     4    2   31 1
     5    3   16 1
     6    3   32 1
     7    4   13 2
     8    5   18 1
     9    5   33 1
    10    6    7 1
    11    6    9 1
    12    6   22 1
    13    7   13 am
    14    7   24 1
    15    8   11 1
    16    8   28 1
    17    8   29 1
    18    9   10 1
    19    9   19 1
    20    9   20 1
    21   10   12 ar
    22   10   14 ar
    23   11   13 1
    24   11   15 1
    25   11   21 1
    26   12   16 ar
    27   14   17 ar
    28   14   23 1
    29   15   25 1
    30   15   26 1
    31   16   18 ar
    32   17   18 ar
    33   17   27 1
