@<TRIPOS>MOLECULE
DB12265
   32    33     0     0     0
SMALL
USER_CHARGES

@<TRIPOS>ATOM
      1 S1         -5.7250    0.1530    0.7140 S.3       1 <0>        -0.1286
      2 O1          0.0902    1.1328    0.0641 O.3       1 <0>        -0.4843
      3 O2          6.8078    0.6904   -0.4014 O.3       1 <0>        -0.5747
      4 O3          6.0101   -1.3403   -0.1232 O.2       1 <0>         0.0431
      5 N1          3.4127   -0.3475   -0.0338 N.pl3     1 <0>        -0.2708
      6 N2          2.6903    1.7457   -0.2031 N.2       1 <0>        -0.2299
      7 N3          5.8294   -0.0948   -0.2438 N.pl3     1 <0>         0.1004
      8 C1          2.3515    0.4977   -0.0437 C.cat     1 <0>         0.1522
      9 C2          0.9505   -0.0042    0.1185 C.3       1 <0>         0.1472
     10 C3          4.5298    0.4215   -0.2014 C.2       1 <0>         0.3677
     11 C4          3.3734   -1.7841    0.1253 C.3       1 <0>         0.0191
     12 C5          4.0585    1.7092   -0.3039 C.2       1 <0>         0.1257
     13 C6         -1.2438    0.9080    0.2127 C.ar      1 <0>         0.1212
     14 C7         -1.7148   -0.3902    0.4082 C.ar      1 <0>        -0.0189
     15 C8         -2.1401    1.9759    0.1703 C.ar      1 <0>        -0.0189
     16 C9         -3.9783    0.4472    0.5187 C.ar      1 <0>         0.0078
     17 C10        -3.0820   -0.6207    0.5612 C.ar      1 <0>        -0.0449
     18 C11        -3.5073    1.7455    0.3232 C.ar      1 <0>        -0.0449
     19 C12        -6.0706   -0.9566   -0.6804 C.3       1 <0>        -0.0135
     20 H1          0.7250   -0.6902   -0.7070 H         1 <0>         0.0779
     21 H2          0.8706   -0.4952    1.0960 H         1 <0>         0.0779
     22 H3          2.3450   -2.1316    0.2401 H         1 <0>         0.0458
     23 H4          3.7908   -2.2518   -0.7700 H         1 <0>         0.0458
     24 H5          3.9260   -2.0563    1.0282 H         1 <0>         0.0458
     25 H6          4.6293    2.6162   -0.4445 H         1 <0>         0.0917
     26 H7         -1.0763   -1.2660    0.4517 H         1 <0>         0.0654
     27 H8         -1.7789    2.9894    0.0183 H         1 <0>         0.0654
     28 H9         -3.4263   -1.6396    0.7194 H         1 <0>         0.0630
     29 H10        -4.1905    2.5906    0.2870 H         1 <0>         0.0630
     30 H11        -5.5586   -1.9134   -0.5505 H         1 <0>         0.0344
     31 H12        -5.7516   -0.4973   -1.6199 H         1 <0>         0.0344
     32 H13        -7.1465   -1.1435   -0.7304 H         1 <0>         0.0344
@<TRIPOS>BOND
     1    1   16 1
     2    1   19 1
     3    2    9 1
     4    2   13 1
     5    3    7 1
     6    4    7 2
     7    5    8 1
     8    5   10 2
     9    5   11 1
    10    6    8 1
    11    6   12 2
    12    7   10 1
    13    8    9 1
    14    9   20 1
    15    9   21 1
    16   10   12 1
    17   11   22 1
    18   11   23 1
    19   11   24 1
    20   12   25 1
    21   13   14 ar
    22   13   15 ar
    23   14   17 ar
    24   14   26 1
    25   15   18 ar
    26   15   27 1
    27   16   17 ar
    28   16   18 ar
    29   17   28 1
    30   18   29 1
    31   19   30 1
    32   19   31 1
    33   19   32 1
