@<TRIPOS>MOLECULE
DB12792
   35    37     0     0     0
SMALL
USER_CHARGES

@<TRIPOS>ATOM
      1 Cl1        -1.3452    5.3999    0.2824 Cl        1 <0>        -0.0835
      2 Cl2         1.9234    0.4444   -2.5061 Cl        1 <0>        -0.0612
      3 O1          1.6153   -2.8415   -0.2917 O.2       1 <0>        -0.2697
      4 N1          0.3213   -0.8870   -0.1193 N.am      1 <0>        -0.2809
      5 N2          4.1309    0.8627   -1.2403 N.ar      1 <0>        -0.2428
      6 C1         -2.0793   -0.5076    0.0449 C.ar      1 <0>         0.0033
      7 C2         -0.9888   -1.3736   -0.0628 C.ar      1 <0>         0.0414
      8 C3         -1.9006    0.9272    0.1028 C.ar      1 <0>        -0.0160
      9 C4         -3.3744   -1.0274    0.0987 C.ar      1 <0>        -0.0523
     10 C5         -1.1927   -2.7526   -0.1164 C.ar      1 <0>        -0.0399
     11 C6         -1.7414    1.5609    1.3350 C.ar      1 <0>        -0.0526
     12 C7         -1.8881    1.6765   -1.0737 C.ar      1 <0>        -0.0526
     13 C8         -3.5782   -2.4063    0.0448 C.ar      1 <0>        -0.0611
     14 C9         -2.4875   -3.2687   -0.0627 C.ar      1 <0>        -0.0600
     15 C10         1.5071   -1.6217   -0.2267 C.2       1 <0>         0.2512
     16 C11         2.7552   -0.8145   -0.2349 C.ar      1 <0>         0.0738
     17 C12        -1.5699    2.9441    1.3909 C.ar      1 <0>        -0.0428
     18 C13        -1.7166    3.0597   -1.0180 C.ar      1 <0>        -0.0428
     19 C14        -1.5575    3.6935    0.2144 C.ar      1 <0>         0.0410
     20 C15         3.6694   -1.0218    0.7720 C.ar      1 <0>        -0.0453
     21 C16         3.0052    0.1147   -1.2090 C.ar      1 <0>         0.1413
     22 C17         4.8400   -0.2712    0.7735 C.ar      1 <0>        -0.0428
     23 C18         5.0213    0.6495   -0.2457 C.ar      1 <0>         0.0293
     24 H1         -4.2378   -0.3711    0.1824 H         1 <0>         0.0624
     25 H2         -0.4112   -3.4930   -0.1992 H         1 <0>         0.0636
     26 H3          0.4258    0.1231   -0.0692 H         1 <0>         0.1552
     27 H4         -1.7479    0.9916    2.2615 H         1 <0>         0.0624
     28 H5         -2.0094    1.1978   -2.0426 H         1 <0>         0.0624
     29 H6         -4.5862   -2.8084    0.0867 H         1 <0>         0.0618
     30 H7         -2.6479   -4.3422   -0.1045 H         1 <0>         0.0618
     31 H8         -1.4467    3.4246    2.3580 H         1 <0>         0.0632
     32 H9         -1.7082    3.6305   -1.9429 H         1 <0>         0.0632
     33 H10         3.4968   -1.7498    1.5588 H         1 <0>         0.0626
     34 H11         5.5865   -0.4024    1.5485 H         1 <0>         0.0633
     35 H12         5.9173    1.2600   -0.2897 H         1 <0>         0.0830
@<TRIPOS>BOND
     1    1   19 1
     2    2   21 1
     3    3   15 2
     4    4    7 1
     5    4   15 am
     6    4   26 1
     7    5   21 ar
     8    5   23 ar
     9    6    7 ar
    10    6    8 1
    11    6    9 ar
    12    7   10 ar
    13    8   11 ar
    14    8   12 ar
    15    9   13 ar
    16    9   24 1
    17   10   14 ar
    18   10   25 1
    19   11   17 ar
    20   11   27 1
    21   12   18 ar
    22   12   28 1
    23   13   14 ar
    24   13   29 1
    25   14   30 1
    26   15   16 1
    27   16   20 ar
    28   16   21 ar
    29   17   19 ar
    30   17   31 1
    31   18   19 ar
    32   18   32 1
    33   20   22 ar
    34   20   33 1
    35   22   23 ar
    36   22   34 1
    37   23   35 1
