@<TRIPOS>MOLECULE
DB12499
   63    66     0     0     0
SMALL
USER_CHARGES

@<TRIPOS>ATOM
      1 O1          2.8918    0.4961    0.3968 O.3       1 <0>        -0.4497
      2 O2          4.2739   -1.8745   -1.3851 O.2       1 <0>        -0.2907
      3 O3          4.8296   -2.7622    1.1651 O.3       1 <0>        -0.3874
      4 O4         -6.5736    2.0901    1.7051 O.2       1 <0>        -0.2927
      5 O5          4.9780    0.7294   -0.5608 O.2       1 <0>        -0.2508
      6 C1          1.0537   -0.8928   -0.4463 C.3       1 <0>         0.0180
      7 C2          0.3451    0.3459   -1.0419 C.3       1 <0>        -0.0283
      8 C3         -1.1786    0.1905   -1.1156 C.3       1 <0>        -0.0337
      9 C4         -1.7347   -0.0484    0.3228 C.3       1 <0>        -0.0288
     10 C5          2.5307   -0.4485   -0.6062 C.3       1 <0>         0.1784
     11 C6          0.5442   -1.0661    0.9940 C.3       1 <0>        -0.0430
     12 C7         -3.3061   -0.1821    0.3578 C.3       1 <0>        -0.0072
     13 C8          1.1161    0.6099   -2.3323 C.3       1 <0>        -0.0453
     14 C9         -0.9883   -1.2021    1.0460 C.3       1 <0>        -0.0485
     15 C10         2.5732    0.2349   -1.9915 C.3       1 <0>        -0.0049
     16 C11        -1.8384    1.4299   -1.7343 C.3       1 <0>        -0.0459
     17 C12         0.7951   -2.1971   -1.2503 C.3       1 <0>        -0.0552
     18 C13        -3.9366    0.9806   -0.4194 C.2       1 <0>        -0.0601
     19 C14        -3.3536    1.2824   -1.7798 C.3       1 <0>        -0.0305
     20 C15        -3.7674   -0.1405    1.8440 C.3       1 <0>        -0.0367
     21 C16        -3.7879   -1.5056   -0.2788 C.3       1 <0>        -0.0556
     22 C17         3.5207   -1.5659   -0.4629 C.2       1 <0>         0.2022
     23 C18        -5.2569    0.1149    2.0133 C.3       1 <0>         0.0107
     24 C19        -4.9715    1.7105    0.0294 C.2       1 <0>        -0.0194
     25 C20        -5.6567    1.3786    1.2994 C.2       1 <0>         0.1561
     26 C21         3.5348   -2.2819    0.8710 C.3       1 <0>         0.1063
     27 C22         4.1562    1.0118    0.3002 C.2       1 <0>         0.3078
     28 C23         4.3791    1.9904    1.4293 C.3       1 <0>         0.0421
     29 C24         5.7734    2.5915    1.3981 C.3       1 <0>        -0.0552
     30 H1          0.5395    1.2109   -0.3864 H         1 <0>         0.0310
     31 H2         -1.4239   -0.6643   -1.7546 H         1 <0>         0.0307
     32 H3         -1.4885    0.8624    0.8932 H         1 <0>         0.0312
     33 H4          0.8314   -0.2087    1.6147 H         1 <0>         0.0272
     34 H5          0.9724   -1.9537    1.4675 H         1 <0>         0.0272
     35 H6          1.0391    1.6563   -2.6454 H         1 <0>         0.0270
     36 H7          0.7438   -0.0093   -3.1561 H         1 <0>         0.0270
     37 H8         -1.2764   -2.1683    0.6201 H         1 <0>         0.0268
     38 H9         -1.2812   -1.2325    2.1014 H         1 <0>         0.0268
     39 H10         2.9501   -0.4213   -2.7839 H         1 <0>         0.0308
     40 H11         3.1653    1.1536   -2.0267 H         1 <0>         0.0308
     41 H12        -1.4704    1.5845   -2.7554 H         1 <0>         0.0271
     42 H13        -1.5710    2.3269   -1.1607 H         1 <0>         0.0271
     43 H14        -0.2685   -2.4264   -1.3545 H         1 <0>         0.0237
     44 H15         1.2065   -2.1522   -2.2639 H         1 <0>         0.0237
     45 H16         1.2465   -3.0647   -0.7594 H         1 <0>         0.0237
     46 H17        -3.6229    0.4726   -2.4693 H         1 <0>         0.0310
     47 H18        -3.7823    2.1995   -2.2023 H         1 <0>         0.0310
     48 H19        -3.2251    0.6560    2.3728 H         1 <0>         0.0278
     49 H20        -3.5165   -1.0780    2.3546 H         1 <0>         0.0278
     50 H21        -3.5016   -2.3721    0.3265 H         1 <0>         0.0238
     51 H22        -4.8796   -1.5316   -0.3753 H         1 <0>         0.0238
     52 H23        -3.3783   -1.6569   -1.2823 H         1 <0>         0.0238
     53 H24        -5.4820    0.2316    3.0792 H         1 <0>         0.0345
     54 H25        -5.8590   -0.7134    1.6271 H         1 <0>         0.0345
     55 H26        -5.3829    2.5345   -0.5440 H         1 <0>         0.0652
     56 H27         2.8573   -3.1368    0.8335 H         1 <0>         0.0638
     57 H28         3.2426   -1.6193    1.6882 H         1 <0>         0.0638
     58 H29         3.6361    2.7904    1.3453 H         1 <0>         0.0375
     59 H30         4.2332    1.4627    2.3779 H         1 <0>         0.0375
     60 H31         5.4094   -1.9899    1.2791 H         1 <0>         0.2100
     61 H32         5.9477    3.1313    0.4614 H         1 <0>         0.0235
     62 H33         5.9048    3.2933    2.2273 H         1 <0>         0.0235
     63 H34         6.5389    1.8130    1.4832 H         1 <0>         0.0235
@<TRIPOS>BOND
     1    1   10 1
     2    1   27 1
     3    2   22 2
     4    3   26 1
     5    3   60 1
     6    4   25 2
     7    5   27 2
     8    6    7 1
     9    6   10 1
    10    6   11 1
    11    6   17 1
    12    7    8 1
    13    7   13 1
    14    7   30 1
    15    8    9 1
    16    8   16 1
    17    8   31 1
    18    9   12 1
    19    9   14 1
    20    9   32 1
    21   10   15 1
    22   10   22 1
    23   11   14 1
    24   11   33 1
    25   11   34 1
    26   12   18 1
    27   12   20 1
    28   12   21 1
    29   13   15 1
    30   13   35 1
    31   13   36 1
    32   14   37 1
    33   14   38 1
    34   15   39 1
    35   15   40 1
    36   16   19 1
    37   16   41 1
    38   16   42 1
    39   17   43 1
    40   17   44 1
    41   17   45 1
    42   18   19 1
    43   18   24 2
    44   19   46 1
    45   19   47 1
    46   20   23 1
    47   20   48 1
    48   20   49 1
    49   21   50 1
    50   21   51 1
    51   21   52 1
    52   22   26 1
    53   23   25 1
    54   23   53 1
    55   23   54 1
    56   24   25 1
    57   24   55 1
    58   26   56 1
    59   26   57 1
    60   27   28 1
    61   28   29 1
    62   28   58 1
    63   28   59 1
    64   29   61 1
    65   29   62 1
    66   29   63 1
