@<TRIPOS>MOLECULE
DB12015
   52    54     0     0     0
SMALL
USER_CHARGES

@<TRIPOS>ATOM
      1 S1          0.0508    1.1569    0.5770 S.3       1 <0>        -0.0518
      2 F1         -4.9890    1.4133   -2.4274 F         1 <0>        -0.1697
      3 F2         -7.1076    0.9386   -2.5390 F         1 <0>        -0.1697
      4 F3         -6.3987    2.4271   -1.1118 F         1 <0>        -0.1697
      5 O1          6.1236   -0.9626    1.6965 O.2       1 <0>        -0.2740
      6 O2          3.6386   -1.7314   -0.1129 O.2       1 <0>        -0.2522
      7 N1          4.8436    0.2230   -0.2404 N.am      1 <0>        -0.2738
      8 N2          2.5331    0.3067    0.1410 N.am      1 <0>        -0.2483
      9 N3          7.8606   -1.7036    0.3822 N.am      1 <0>        -0.3278
     10 N4         -5.1779    1.2011    1.4408 N.ar      1 <0>        -0.2590
     11 N5          0.7237   -1.3311    0.3783 N.2       1 <0>        -0.2292
     12 C1          6.0897   -0.4252   -0.6325 C.3       1 <0>         0.1035
     13 C2          6.9656    0.7039   -1.1608 C.3       1 <0>        -0.0243
     14 C3          6.4918    1.9198   -0.3703 C.3       1 <0>        -0.0349
     15 C4          4.9980    1.6779   -0.2136 C.3       1 <0>         0.0170
     16 C5          6.6701   -1.0513    0.5998 C.2       1 <0>         0.2311
     17 C6          3.6523   -0.4999   -0.0710 C.2       1 <0>         0.3085
     18 C7         -5.9376    0.1358   -0.5957 C.3       1 <0>         0.1019
     19 C8         -4.8354    0.4801    0.3497 C.ar      1 <0>         0.0560
     20 C9         -6.1056    1.2363   -1.6827 C.3       1 <0>         0.4003
     21 C10        -7.3103   -0.0240    0.1345 C.3       1 <0>        -0.0460
     22 C11        -5.7397   -1.2101   -1.3732 C.3       1 <0>        -0.0460
     23 C12        -3.5454    0.0559    0.0739 C.ar      1 <0>        -0.0313
     24 C13        -2.5425    0.3936    0.9757 C.ar      1 <0>        -0.0063
     25 C14         1.1923   -0.1033    0.3455 C.2       1 <0>         0.1663
     26 C15        -1.1832   -0.0233    0.7366 C.2       1 <0>         0.0436
     27 C16        -0.6384   -1.2831    0.6024 C.2       1 <0>         0.0552
     28 C17        -2.8557    1.1347    2.1098 C.ar      1 <0>        -0.0353
     29 C18        -4.1763    1.5105    2.2946 C.ar      1 <0>         0.0285
     30 C19        -1.3719   -2.5642    0.6748 C.3       1 <0>        -0.0212
     31 H1          5.9027   -1.2034   -1.3802 H         1 <0>         0.0597
     32 H2          6.7531    0.8650   -2.2251 H         1 <0>         0.0288
     33 H3          8.0418    0.5421   -1.0539 H         1 <0>         0.0288
     34 H4          6.9743    1.9330    0.6144 H         1 <0>         0.0281
     35 H5          6.7140    2.8671   -0.8694 H         1 <0>         0.0281
     36 H6          4.6028    2.0903    0.7193 H         1 <0>         0.0465
     37 H7          4.4372    2.0926   -1.0584 H         1 <0>         0.0465
     38 H8          2.6484    1.3148    0.1529 H         1 <0>         0.1583
     39 H9         -6.6338   -1.4730   -1.9510 H         1 <0>         0.0241
     40 H10        -5.5384   -2.0355   -0.6802 H         1 <0>         0.0241
     41 H11        -4.9116   -1.1559   -2.0881 H         1 <0>         0.0241
     42 H12        -8.1080   -0.3051   -0.5625 H         1 <0>         0.0241
     43 H13        -7.2520   -0.7982    0.9087 H         1 <0>         0.0241
     44 H14        -7.6197    0.9095    0.6187 H         1 <0>         0.0241
     45 H15         8.2843   -1.7714   -0.5376 H         1 <0>         0.1450
     46 H16         8.3521   -2.1595    1.1438 H         1 <0>         0.1450
     47 H17        -3.2967   -0.5018   -0.8216 H         1 <0>         0.0642
     48 H18        -2.1080    1.4134    2.8456 H         1 <0>         0.0639
     49 H19        -4.4733    2.0874    3.1643 H         1 <0>         0.0830
     50 H20        -2.0562   -2.5806    1.5291 H         1 <0>         0.0293
     51 H21        -0.6806   -3.4055    0.7891 H         1 <0>         0.0293
     52 H22        -1.9510   -2.7275   -0.2394 H         1 <0>         0.0293
@<TRIPOS>BOND
     1    1   25 1
     2    1   26 1
     3    2   20 1
     4    3   20 1
     5    4   20 1
     6    5   16 2
     7    6   17 2
     8    7   12 1
     9    7   15 1
    10    7   17 am
    11    8   17 am
    12    8   25 1
    13    8   38 1
    14    9   16 am
    15    9   45 1
    16    9   46 1
    17   10   19 ar
    18   10   29 ar
    19   11   25 2
    20   11   27 1
    21   12   13 1
    22   12   16 1
    23   12   31 1
    24   13   14 1
    25   13   32 1
    26   13   33 1
    27   14   15 1
    28   14   34 1
    29   14   35 1
    30   15   36 1
    31   15   37 1
    32   18   19 1
    33   18   20 1
    34   18   21 1
    35   18   22 1
    36   19   23 ar
    37   21   42 1
    38   21   43 1
    39   21   44 1
    40   22   39 1
    41   22   40 1
    42   22   41 1
    43   23   24 ar
    44   23   47 1
    45   24   26 1
    46   24   28 ar
    47   26   27 2
    48   27   30 1
    49   28   29 ar
    50   28   48 1
    51   29   49 1
    52   30   50 1
    53   30   51 1
    54   30   52 1
