@<TRIPOS>MOLECULE
DB12952
   55    58     0     0     0
SMALL
USER_CHARGES

@<TRIPOS>ATOM
      1 O1         -3.1091    0.2258    2.0540 O.3       1 <0>        -0.3804
      2 O2          0.4288    2.9742   -0.7017 O.2       1 <0>        -0.2970
      3 O3         -4.4088    1.8091   -0.1998 O.2       1 <0>        -0.2919
      4 O4         -6.8084    0.6329    0.4569 O.3       1 <0>        -0.3874
      5 O5          6.1151    1.0670    1.9517 O.2       1 <0>        -0.2879
      6 C1         -0.9033   -0.6825    0.3626 C.3       1 <0>        -0.0286
      7 C2         -1.8654    0.4612   -0.0451 C.3       1 <0>         0.0134
      8 C3          0.4937   -0.5487   -0.2643 C.3       1 <0>        -0.0265
      9 C4          1.1312    0.7986    0.1998 C.3       1 <0>         0.0331
     10 C5         -3.1579   -0.0301    0.6532 C.3       1 <0>         0.1318
     11 C6         -1.7124   -1.9455    0.0776 C.3       1 <0>        -0.0463
     12 C7         -1.2719    1.7770    0.4690 C.3       1 <0>         0.0148
     13 C8          2.5967    0.9927   -0.3261 C.3       1 <0>         0.0177
     14 C9         -3.1666   -1.5543    0.4077 C.3       1 <0>        -0.0162
     15 C10         1.3863   -1.7406    0.1112 C.3       1 <0>        -0.0429
     16 C11         0.1346    1.9471   -0.0936 C.2       1 <0>         0.1384
     17 C12         2.8077   -1.5911   -0.4497 C.3       1 <0>        -0.0212
     18 C13        -2.0814    0.5662   -1.5809 C.3       1 <0>        -0.0559
     19 C14         3.4022   -0.2730    0.0443 C.2       1 <0>        -0.0528
     20 C15        -4.4154    0.6439    0.1944 C.2       1 <0>         0.1902
     21 C16         2.6622    1.1923   -1.8580 C.3       1 <0>        -0.0517
     22 C17         3.2066    2.2414    0.3001 C.2       1 <0>        -0.0698
     23 C18         3.6075   -2.8631   -0.1341 C.3       1 <0>        -0.0587
     24 C19         4.5270   -0.2229    0.7799 C.2       1 <0>        -0.0146
     25 C20        -5.6792   -0.1882    0.2462 C.3       1 <0>         0.1052
     26 C21         4.3225    2.2792    1.0326 C.2       1 <0>        -0.0180
     27 C22         5.0740    1.0452    1.3039 C.2       1 <0>         0.1787
     28 H1         -0.7601   -0.6494    1.4553 H         1 <0>         0.0310
     29 H2          0.3952   -0.5517   -1.3551 H         1 <0>         0.0311
     30 H3          1.1935    0.7730    1.3005 H         1 <0>         0.0392
     31 H4         -1.3817   -2.7899    0.6911 H         1 <0>         0.0269
     32 H5         -1.6268   -2.2471   -0.9726 H         1 <0>         0.0269
     33 H6         -1.1774    1.8034    1.5599 H         1 <0>         0.0348
     34 H7         -1.8830    2.6355    0.1708 H         1 <0>         0.0348
     35 H8         -3.7947   -1.8567   -0.4367 H         1 <0>         0.0297
     36 H9         -3.5042   -2.1021    1.2951 H         1 <0>         0.0297
     37 H10         0.9423   -2.6647   -0.2794 H         1 <0>         0.0274
     38 H11         1.4247   -1.8469    1.2040 H         1 <0>         0.0274
     39 H12         2.7482   -1.5438   -1.5442 H         1 <0>         0.0343
     40 H13        -1.1421    0.6975   -2.1262 H         1 <0>         0.0236
     41 H14        -2.5709   -0.3197   -1.9975 H         1 <0>         0.0236
     42 H15        -2.6957    1.4322   -1.8464 H         1 <0>         0.0236
     43 H16         3.7003    1.1656   -2.2141 H         1 <0>         0.0241
     44 H17         2.1139    0.4229   -2.4093 H         1 <0>         0.0241
     45 H18         2.2503    2.1579   -2.1701 H         1 <0>         0.0241
     46 H19         2.7151    3.1942    0.1213 H         1 <0>         0.0582
     47 H20        -3.1326    1.1873    2.1954 H         1 <0>         0.2108
     48 H21         4.6164   -2.8109   -0.5578 H         1 <0>         0.0235
     49 H22         3.6901   -3.0345    0.9448 H         1 <0>         0.0235
     50 H23         3.1183   -3.7412   -0.5706 H         1 <0>         0.0235
     51 H24         5.0901   -1.1099    1.0461 H         1 <0>         0.0656
     52 H25        -5.6397   -0.8853    1.0867 H         1 <0>         0.0637
     53 H26        -5.8026   -0.7412   -0.6886 H         1 <0>         0.0637
     54 H27         4.7042    3.2112    1.4329 H         1 <0>         0.0653
     55 H28        -6.9077    1.1999   -0.3269 H         1 <0>         0.2100
@<TRIPOS>BOND
     1    1   10 1
     2    1   47 1
     3    2   16 2
     4    3   20 2
     5    4   25 1
     6    4   55 1
     7    5   27 2
     8    6    7 1
     9    6    8 1
    10    6   11 1
    11    6   28 1
    12    7   10 1
    13    7   12 1
    14    7   18 1
    15    8    9 1
    16    8   15 1
    17    8   29 1
    18    9   13 1
    19    9   16 1
    20    9   30 1
    21   10   14 1
    22   10   20 1
    23   11   14 1
    24   11   31 1
    25   11   32 1
    26   12   16 1
    27   12   33 1
    28   12   34 1
    29   13   19 1
    30   13   21 1
    31   13   22 1
    32   14   35 1
    33   14   36 1
    34   15   17 1
    35   15   37 1
    36   15   38 1
    37   17   19 1
    38   17   23 1
    39   17   39 1
    40   18   40 1
    41   18   41 1
    42   18   42 1
    43   19   24 2
    44   20   25 1
    45   21   43 1
    46   21   44 1
    47   21   45 1
    48   22   26 2
    49   22   46 1
    50   23   48 1
    51   23   49 1
    52   23   50 1
    53   24   27 1
    54   24   51 1
    55   25   52 1
    56   25   53 1
    57   26   27 1
    58   26   54 1
