@<TRIPOS>MOLECULE
DB12543
   53    57     0     0     0
SMALL
USER_CHARGES

@<TRIPOS>ATOM
      1 O1          1.4440   -2.3080    0.3959 O.3       1 <0>        -0.3861
      2 O2         -3.0391   -3.1959   -0.3799 O.2       1 <0>        -0.2974
      3 O3         -3.3539   -0.2722    1.4592 O.3       1 <0>        -0.5057
      4 O4         -5.1247    2.4803    1.3071 O.2       1 <0>        -0.2703
      5 N1          2.0650    0.3825    0.7679 N.3       1 <0>        -0.2960
      6 N2         -5.8475    1.1303   -0.3999 N.am      1 <0>        -0.3252
      7 C1         -0.5570   -0.9236    0.7181 C.3       1 <0>         0.0375
      8 C2          0.6055   -1.3284   -0.2451 C.3       1 <0>         0.0923
      9 C3          1.4660   -0.0701   -0.5112 C.3       1 <0>         0.0440
     10 C4          0.0674   -0.3892    2.0380 C.3       1 <0>        -0.0273
     11 C5          0.0718   -1.9978   -1.5362 C.3       1 <0>        -0.0150
     12 C6         -1.3862   -2.1917    1.0432 C.3       1 <0>         0.0183
     13 C7          1.0924    0.7313    1.8057 C.3       1 <0>         0.0002
     14 C8         -1.3889    0.2249    0.1072 C.ar      1 <0>         0.0074
     15 C9          0.6387    0.9943   -1.2608 C.3       1 <0>        -0.0089
     16 C10         3.0690    1.4290    0.6050 C.3       1 <0>         0.0021
     17 C11         4.0947    1.0463   -0.4483 C.3       1 <0>        -0.0282
     18 C12        -0.7970    1.1292   -0.8051 C.ar      1 <0>        -0.0385
     19 C13        -0.8001   -3.2151   -1.2391 C.3       1 <0>         0.0085
     20 C14         4.8761   -0.1974   -0.2412 C.3       1 <0>        -0.0488
     21 C15         5.5311    1.1444   -0.0909 C.3       1 <0>        -0.0488
     22 C16        -1.8641   -2.8681   -0.2243 C.2       1 <0>         0.1344
     23 C17        -2.7255    0.4486    0.4863 C.ar      1 <0>         0.1330
     24 C18        -1.5561    2.1834   -1.3425 C.ar      1 <0>        -0.0573
     25 C19        -3.4656    1.5046   -0.0504 C.ar      1 <0>         0.0781
     26 C20        -2.8834    2.3685   -0.9685 C.ar      1 <0>        -0.0458
     27 C21        -4.8481    1.7432    0.3471 C.2       1 <0>         0.2451
     28 H1          2.2736   -0.3990   -1.1748 H         1 <0>         0.0494
     29 H2          0.5609   -1.2072    2.5796 H         1 <0>         0.0287
     30 H3         -0.7145   -0.0169    2.7129 H         1 <0>         0.0287
     31 H4          0.9156   -2.3263   -2.1560 H         1 <0>         0.0298
     32 H5         -0.5132   -1.2988   -2.1424 H         1 <0>         0.0298
     33 H6         -2.2114   -2.0588    1.7402 H         1 <0>         0.0351
     34 H7         -0.7471   -2.9320    1.5460 H         1 <0>         0.0351
     35 H8          0.5789    1.6707    1.5680 H         1 <0>         0.0427
     36 H9          1.6153    0.9026    2.7552 H         1 <0>         0.0427
     37 H10         0.6186    0.7246   -2.3256 H         1 <0>         0.0329
     38 H11         1.1268    1.9738   -1.2156 H         1 <0>         0.0329
     39 H12         2.6231    2.3923    0.3313 H         1 <0>         0.0429
     40 H13         3.5753    1.5864    1.5660 H         1 <0>         0.0429
     41 H14         3.8089    1.3250   -1.4545 H         1 <0>         0.0313
     42 H15        -0.2045   -4.0433   -0.8403 H         1 <0>         0.0342
     43 H16        -1.2809   -3.5610   -2.1603 H         1 <0>         0.0342
     44 H17         5.1289   -0.7868   -1.1142 H         1 <0>         0.0268
     45 H18         4.7252   -0.7806    0.6589 H         1 <0>         0.0268
     46 H19         5.8129    1.4568    0.9069 H         1 <0>         0.0268
     47 H20         6.2252    1.4536   -0.8631 H         1 <0>         0.0268
     48 H21         2.0165   -1.8545    1.0367 H         1 <0>         0.2103
     49 H22        -1.1076    2.8705   -2.0563 H         1 <0>         0.0621
     50 H23        -3.4469    3.1951   -1.3931 H         1 <0>         0.0626
     51 H24        -4.2993   -0.0662    1.5210 H         1 <0>         0.2922
     52 H25        -5.6380    0.5305   -1.1916 H         1 <0>         0.1453
     53 H26        -6.8268    1.2661   -0.1723 H         1 <0>         0.1453
@<TRIPOS>BOND
     1    1    8 1
     2    1   48 1
     3    2   22 2
     4    3   23 1
     5    3   51 1
     6    4   27 2
     7    5    9 1
     8    5   13 1
     9    5   16 1
    10    6   27 am
    11    6   52 1
    12    6   53 1
    13    7    8 1
    14    7   10 1
    15    7   12 1
    16    7   14 1
    17    8    9 1
    18    8   11 1
    19    9   15 1
    20    9   28 1
    21   10   13 1
    22   10   29 1
    23   10   30 1
    24   11   19 1
    25   11   31 1
    26   11   32 1
    27   12   22 1
    28   12   33 1
    29   12   34 1
    30   13   35 1
    31   13   36 1
    32   14   18 ar
    33   14   23 ar
    34   15   18 1
    35   15   37 1
    36   15   38 1
    37   16   17 1
    38   16   39 1
    39   16   40 1
    40   17   20 1
    41   17   21 1
    42   17   41 1
    43   18   24 ar
    44   19   22 1
    45   19   42 1
    46   19   43 1
    47   20   21 1
    48   20   44 1
    49   20   45 1
    50   21   46 1
    51   21   47 1
    52   23   25 ar
    53   24   26 ar
    54   24   49 1
    55   25   26 ar
    56   25   27 1
    57   26   50 1
