@<TRIPOS>MOLECULE
DB12492
   66    69     0     0     0
SMALL
USER_CHARGES

@<TRIPOS>ATOM
      1 O1          2.3915    2.0442   -1.8193 O.2       1 <0>        -0.2740
      2 N1          4.3442    0.1501    0.0619 N.3       1 <0>        -0.2889
      3 N2          0.2340    0.3357    1.0441 N.3       1 <0>        -0.3021
      4 N3          3.8917    2.8964   -0.2971 N.am      1 <0>        -0.3278
      5 N4         -4.1415    0.0088    3.3579 N.1       1 <0>        -0.1953
      6 C1          2.9838    0.6877    0.0677 C.3       1 <0>         0.1007
      7 C2          2.5664    1.0336    1.5025 C.3       1 <0>        -0.0131
      8 C3          2.0166   -0.3364   -0.5392 C.3       1 <0>        -0.0131
      9 C4          1.0808    1.4013    1.5963 C.3       1 <0>         0.0010
     10 C5          0.5520    0.0839   -0.3674 C.3       1 <0>         0.0010
     11 C6          4.4340   -1.0307    0.9323 C.3       1 <0>        -0.0002
     12 C7          4.7655   -0.1679   -1.3097 C.3       1 <0>        -0.0002
     13 C8          5.8620   -1.5764    0.9761 C.3       1 <0>        -0.0401
     14 C9          6.2046   -0.6852   -1.3391 C.3       1 <0>        -0.0401
     15 C10         3.0411    1.9315   -0.7826 C.2       1 <0>         0.2310
     16 C11         6.3788   -1.8911   -0.4231 C.3       1 <0>        -0.0507
     17 C12        -1.1806    0.6760    1.1967 C.3       1 <0>         0.0009
     18 C13        -2.0574   -0.4699    0.6600 C.3       1 <0>        -0.0135
     19 C14        -3.6103   -0.2332    0.7668 C.3       1 <0>         0.1082
     20 C15        -4.4466   -1.4410    0.2660 C.ar      1 <0>        -0.0232
     21 C16        -3.9726    1.0205   -0.0663 C.ar      1 <0>        -0.0232
     22 C17        -3.9118   -0.0885    2.2240 C.1       1 <0>         0.0787
     23 C18        -5.8048   -1.3698    0.3890 C.ar      1 <0>        -0.0568
     24 C19        -4.5112    2.0923    0.5903 C.ar      1 <0>        -0.0568
     25 C20        -3.7749   -2.5032   -0.2684 C.ar      1 <0>        -0.0568
     26 C21        -3.7335    0.9867   -1.4123 C.ar      1 <0>        -0.0568
     27 C22        -6.5566   -2.4552   -0.0612 C.ar      1 <0>        -0.0614
     28 C23        -4.8374    3.2219   -0.1601 C.ar      1 <0>        -0.0614
     29 C24        -4.5268   -3.5884   -0.7187 C.ar      1 <0>        -0.0614
     30 C25        -4.0597    2.1164   -2.1625 C.ar      1 <0>        -0.0614
     31 C26        -5.9177   -3.5643   -0.6150 C.ar      1 <0>        -0.0617
     32 C27        -4.6117    3.2341   -1.5364 C.ar      1 <0>        -0.0617
     33 H1          3.1627    1.8435    1.9377 H         1 <0>         0.0300
     34 H2          2.6584    0.1898    2.1911 H         1 <0>         0.0300
     35 H3          2.0899   -1.3264   -0.0810 H         1 <0>         0.0300
     36 H4          2.1685   -0.4780   -1.6161 H         1 <0>         0.0300
     37 H5          0.8356    1.5571    2.6546 H         1 <0>         0.0427
     38 H6          0.8993    2.3542    1.0822 H         1 <0>         0.0427
     39 H7          0.3108    0.9539   -0.9892 H         1 <0>         0.0427
     40 H8         -0.0018   -0.7666   -0.7719 H         1 <0>         0.0427
     41 H9          3.7951   -1.8624    0.6247 H         1 <0>         0.0427
     42 H10         4.2207   -0.8055    1.9784 H         1 <0>         0.0427
     43 H11         4.7441    0.7046   -1.9712 H         1 <0>         0.0427
     44 H12         4.1486   -0.9471   -1.7713 H         1 <0>         0.0427
     45 H13         5.8974   -2.4812    1.5939 H         1 <0>         0.0278
     46 H14         6.5234   -0.8402    1.4511 H         1 <0>         0.0278
     47 H15         6.4810   -0.9586   -2.3640 H         1 <0>         0.0278
     48 H16         6.8887    0.1139   -1.0261 H         1 <0>         0.0278
     49 H17         5.8275   -2.7460   -0.8336 H         1 <0>         0.0266
     50 H18         7.4346   -2.1800   -0.3781 H         1 <0>         0.0266
     51 H19        -1.3960    0.8317    2.2598 H         1 <0>         0.0427
     52 H20        -1.4072    1.6136    0.6753 H         1 <0>         0.0427
     53 H21        -1.7809   -1.3798    1.2133 H         1 <0>         0.0299
     54 H22        -1.8411   -0.6441   -0.3951 H         1 <0>         0.0299
     55 H23         4.0086    3.7775   -0.7865 H         1 <0>         0.1450
     56 H24         4.4707    2.7579    0.5245 H         1 <0>         0.1450
     57 H25        -6.3180   -0.5141    0.8148 H         1 <0>         0.0621
     58 H26        -4.7059    2.1349    1.6542 H         1 <0>         0.0621
     59 H27        -2.7021   -2.5820   -0.3781 H         1 <0>         0.0621
     60 H28        -3.3127    0.1258   -1.9200 H         1 <0>         0.0621
     61 H29        -7.6397   -2.4362    0.0187 H         1 <0>         0.0618
     62 H30        -5.2672    4.0926    0.3266 H         1 <0>         0.0618
     63 H31        -4.0304   -4.4526   -1.1506 H         1 <0>         0.0618
     64 H32        -3.8856    2.1255   -3.2345 H         1 <0>         0.0618
     65 H33        -6.5031   -4.4090   -0.9659 H         1 <0>         0.0618
     66 H34        -4.8660    4.1135   -2.1208 H         1 <0>         0.0618
@<TRIPOS>BOND
     1    1   15 2
     2    2    6 1
     3    2   11 1
     4    2   12 1
     5    3    9 1
     6    3   10 1
     7    3   17 1
     8    4   15 am
     9    4   55 1
    10    4   56 1
    11    5   22 3
    12    6    7 1
    13    6    8 1
    14    6   15 1
    15    7    9 1
    16    7   33 1
    17    7   34 1
    18    8   10 1
    19    8   35 1
    20    8   36 1
    21    9   37 1
    22    9   38 1
    23   10   39 1
    24   10   40 1
    25   11   13 1
    26   11   41 1
    27   11   42 1
    28   12   14 1
    29   12   43 1
    30   12   44 1
    31   13   16 1
    32   13   45 1
    33   13   46 1
    34   14   16 1
    35   14   47 1
    36   14   48 1
    37   16   49 1
    38   16   50 1
    39   17   18 1
    40   17   51 1
    41   17   52 1
    42   18   19 1
    43   18   53 1
    44   18   54 1
    45   19   20 1
    46   19   21 1
    47   19   22 1
    48   20   23 ar
    49   20   25 ar
    50   21   24 ar
    51   21   26 ar
    52   23   27 ar
    53   23   57 1
    54   24   28 ar
    55   24   58 1
    56   25   29 ar
    57   25   59 1
    58   26   30 ar
    59   26   60 1
    60   27   31 ar
    61   27   61 1
    62   28   32 ar
    63   28   62 1
    64   29   31 ar
    65   29   63 1
    66   30   32 ar
    67   30   64 1
    68   31   65 1
    69   32   66 1
