@<TRIPOS>MOLECULE
DB12532
   75    76     0     0     0
SMALL
USER_CHARGES

@<TRIPOS>ATOM
      1 O1         -3.1722    1.0003   -1.2051 O.2       1 <0>        -0.2742
      2 O2          0.9625    1.4355   -1.4316 O.2       1 <0>        -0.2742
      3 O3         -2.9999    5.5481   -1.7445 O.3       1 <0>        -0.3937
      4 N1         -3.3357   -0.2501    0.7403 N.am      1 <0>        -0.2979
      5 N2          2.2967    2.0716    0.3543 N.am      1 <0>        -0.2979
      6 N3         -1.2478    2.6220   -0.3434 N.3       1 <0>        -0.2833
      7 C1         -4.3906   -1.1356    0.2623 C.3       1 <0>         0.0355
      8 C2          3.0859    0.8533    0.4901 C.3       1 <0>         0.0355
      9 C3         -3.9341   -1.8902   -1.0146 C.3       1 <0>        -0.0066
     10 C4          4.1537    0.7660   -0.6326 C.3       1 <0>        -0.0066
     11 C5         -5.6128   -0.2723   -0.0932 C.3       1 <0>        -0.0435
     12 C6         -4.7857   -2.1046    1.3867 C.3       1 <0>        -0.0435
     13 C7          3.7230    0.8164    1.8872 C.3       1 <0>        -0.0435
     14 C8          2.1355   -0.3480    0.3524 C.3       1 <0>        -0.0435
     15 C9         -1.7054    1.6060    0.5976 C.3       1 <0>         0.0764
     16 C10         0.0764    3.1170    0.0365 C.3       1 <0>         0.0764
     17 C11        -2.7977    0.7722   -0.0515 C.2       1 <0>         0.2299
     18 C12         1.1359    2.1310   -0.4270 C.2       1 <0>         0.2299
     19 C13        -2.7339   -2.7959   -0.8540 C.ar      1 <0>        -0.0454
     20 C14         5.0173   -0.4753   -0.6289 C.ar      1 <0>        -0.0454
     21 C15        -2.8802   -0.5063    2.1047 C.3       1 <0>         0.0037
     22 C16         2.8042    3.2259    1.0924 C.3       1 <0>         0.0037
     23 C17        -2.2035    3.7289   -0.4115 C.3       1 <0>         0.0231
     24 C18        -1.4488   -2.2942   -1.0611 C.ar      1 <0>        -0.0585
     25 C19         6.2132   -0.4908    0.0889 C.ar      1 <0>        -0.0585
     26 C20        -2.9115   -4.1329   -0.4981 C.ar      1 <0>        -0.0585
     27 C21         4.6176   -1.6052   -1.3427 C.ar      1 <0>        -0.0585
     28 C22        -2.0437    4.4967   -1.7140 C.3       1 <0>         0.0569
     29 C23        -0.3417   -3.1294   -0.9128 C.ar      1 <0>        -0.0615
     30 C24         7.0097   -1.6359    0.0928 C.ar      1 <0>        -0.0615
     31 C25        -1.8041   -4.9680   -0.3496 C.ar      1 <0>        -0.0615
     32 C26         5.4142   -2.7504   -1.3388 C.ar      1 <0>        -0.0615
     33 C27        -0.5192   -4.4661   -0.5569 C.ar      1 <0>        -0.0617
     34 C28         6.6101   -2.7656   -0.6210 C.ar      1 <0>        -0.0617
     35 H1         -4.7715   -2.5058   -1.3753 H         1 <0>         0.0334
     36 H2         -3.7381   -1.2064   -1.8489 H         1 <0>         0.0334
     37 H3          3.6709    0.8506   -1.6165 H         1 <0>         0.0334
     38 H4          4.8113    1.6453   -0.5815 H         1 <0>         0.0334
     39 H5         -5.4535    0.3692   -0.9646 H         1 <0>         0.0250
     40 H6         -5.8961    0.3766    0.7441 H         1 <0>         0.0250
     41 H7         -6.4780   -0.9043   -0.3267 H         1 <0>         0.0250
     42 H8         -5.2439   -1.6006    2.2453 H         1 <0>         0.0250
     43 H9         -5.5637   -2.7855    1.0144 H         1 <0>         0.0250
     44 H10        -3.9831   -2.7571    1.7405 H         1 <0>         0.0250
     45 H11         2.9776    0.9753    2.6760 H         1 <0>         0.0250
     46 H12         4.1691   -0.1638    2.0933 H         1 <0>         0.0250
     47 H13         4.5259    1.5498    2.0155 H         1 <0>         0.0250
     48 H14         2.6122   -1.2714    0.7036 H         1 <0>         0.0250
     49 H15         1.2376   -0.2251    0.9699 H         1 <0>         0.0250
     50 H16         1.8196   -0.5455   -0.6754 H         1 <0>         0.0250
     51 H17        -0.8881    0.9154    0.8333 H         1 <0>         0.0522
     52 H18        -2.0693    2.0665    1.5235 H         1 <0>         0.0522
     53 H19         0.3247    4.0601   -0.4616 H         1 <0>         0.0522
     54 H20         0.1359    3.2885    1.1179 H         1 <0>         0.0522
     55 H21        -3.6958   -0.3561    2.8167 H         1 <0>         0.0429
     56 H22        -2.0917    0.1708    2.4323 H         1 <0>         0.0429
     57 H23        -2.4392   -1.5040    2.1776 H         1 <0>         0.0429
     58 H24         2.5667    3.1301    2.1550 H         1 <0>         0.0429
     59 H25         2.3356    4.1447    0.7281 H         1 <0>         0.0429
     60 H26         3.8800    3.3398    0.9319 H         1 <0>         0.0429
     61 H27        -2.1027    4.4059    0.4482 H         1 <0>         0.0449
     62 H28        -3.2436    3.3807   -0.3692 H         1 <0>         0.0449
     63 H29        -1.2907   -1.2598   -1.3510 H         1 <0>         0.0620
     64 H30         6.5382    0.3833    0.6468 H         1 <0>         0.0620
     65 H31        -3.9067   -4.5384   -0.3365 H         1 <0>         0.0620
     66 H32         3.6929   -1.6066   -1.9132 H         1 <0>         0.0620
     67 H33        -1.0542    4.9491   -1.8195 H         1 <0>         0.0570
     68 H34        -2.2239    3.8442   -2.5753 H         1 <0>         0.0570
     69 H35         0.6587   -2.7426   -1.0806 H         1 <0>         0.0618
     70 H36         7.9413   -1.6476    0.6510 H         1 <0>         0.0618
     71 H37        -1.9423   -6.0093   -0.0736 H         1 <0>         0.0618
     72 H38         5.1040   -3.6295   -1.8959 H         1 <0>         0.0618
     73 H39         0.3428   -5.1167   -0.4429 H         1 <0>         0.0618
     74 H40         7.2304   -3.6571   -0.6185 H         1 <0>         0.0618
     75 H41        -2.8866    6.0127   -2.5913 H         1 <0>         0.2095
@<TRIPOS>BOND
     1    1   17 2
     2    2   18 2
     3    3   28 1
     4    3   75 1
     5    4    7 1
     6    4   17 am
     7    4   21 1
     8    5    8 1
     9    5   18 am
    10    5   22 1
    11    6   15 1
    12    6   16 1
    13    6   23 1
    14    7    9 1
    15    7   11 1
    16    7   12 1
    17    8   10 1
    18    8   13 1
    19    8   14 1
    20    9   19 1
    21    9   35 1
    22    9   36 1
    23   10   20 1
    24   10   37 1
    25   10   38 1
    26   11   39 1
    27   11   40 1
    28   11   41 1
    29   12   42 1
    30   12   43 1
    31   12   44 1
    32   13   45 1
    33   13   46 1
    34   13   47 1
    35   14   48 1
    36   14   49 1
    37   14   50 1
    38   15   17 1
    39   15   51 1
    40   15   52 1
    41   16   18 1
    42   16   53 1
    43   16   54 1
    44   19   24 ar
    45   19   26 ar
    46   20   25 ar
    47   20   27 ar
    48   21   55 1
    49   21   56 1
    50   21   57 1
    51   22   58 1
    52   22   59 1
    53   22   60 1
    54   23   28 1
    55   23   61 1
    56   23   62 1
    57   24   29 ar
    58   24   63 1
    59   25   30 ar
    60   25   64 1
    61   26   31 ar
    62   26   65 1
    63   27   32 ar
    64   27   66 1
    65   28   67 1
    66   28   68 1
    67   29   33 ar
    68   29   69 1
    69   30   34 ar
    70   30   70 1
    71   31   33 ar
    72   31   71 1
    73   32   34 ar
    74   32   72 1
    75   33   73 1
    76   34   74 1
