@<TRIPOS>MOLECULE
DB12825
   80    83     0     0     0
SMALL
USER_CHARGES

@<TRIPOS>ATOM
      1 S1         -2.9999    2.8558    0.3644 S.3       1 <0>        -0.1435
      2 O1         -0.2132    1.8242   -0.0989 O.3       1 <0>        -0.4602
      3 O2          1.7091   -3.7384   -0.2879 O.3       1 <0>        -0.3907
      4 O3          4.3390    1.4570    2.7911 O.2       1 <0>        -0.2971
      5 O4         -0.9861    0.8680   -2.0475 O.2       1 <0>        -0.2499
      6 O5         -3.1313    0.3642    2.2726 O.3       1 <0>        -0.3906
      7 N1         -6.9058   -1.7502    0.0962 N.3       1 <0>        -0.3272
      8 C1          3.7063   -0.5757   -0.0573 C.3       1 <0>        -0.0138
      9 C2          3.0389    0.2094    1.1142 C.3       1 <0>         0.0324
     10 C3          2.0765    1.3675    0.6970 C.3       1 <0>         0.0176
     11 C4          2.7596   -1.5858   -0.8250 C.3       1 <0>        -0.0107
     12 C5          2.8520    2.3306   -0.2754 C.3       1 <0>        -0.0344
     13 C6          4.3602    0.4364   -1.0524 C.3       1 <0>        -0.0461
     14 C7          4.8373   -1.3438    0.6818 C.3       1 <0>        -0.0397
     15 C8          0.7761    0.7867    0.0109 C.3       1 <0>         0.1102
     16 C9          3.4466    1.5792   -1.4798 C.3       1 <0>        -0.0493
     17 C10         4.2713    0.5628    1.9581 C.2       1 <0>         0.1376
     18 C11         1.7410   -2.3519    0.0964 C.3       1 <0>         0.0672
     19 C12         5.4221   -0.3736    1.7005 C.3       1 <0>         0.0067
     20 C13         0.2636   -1.8113    0.1077 C.3       1 <0>         0.0152
     21 C14         0.1032   -0.3954    0.7439 C.3       1 <0>        -0.0039
     22 C15         1.6427    2.1611    1.9635 C.3       1 <0>        -0.0553
     23 C16         3.5698   -2.5691   -1.7052 C.3       1 <0>        -0.0595
     24 C17         2.0596    3.5394   -0.7883 C.3       1 <0>        -0.0618
     25 C18        -0.6233   -2.7669    0.9497 C.3       1 <0>        -0.0536
     26 C19        -0.3273   -1.8150   -1.2864 C.2       1 <0>        -0.0826
     27 C20        -1.0327    1.7368   -1.1880 C.2       1 <0>         0.3173
     28 C21        -1.6017   -2.1156   -1.5582 C.2       1 <0>        -0.1020
     29 C22        -1.9973    2.8951   -1.1402 C.3       1 <0>         0.0914
     30 C23        -3.8030    1.2287    0.1147 C.3       1 <0>         0.0318
     31 C24        -4.2680    0.6484    1.4580 C.3       1 <0>         0.0684
     32 C25        -4.9678    1.3921   -0.8666 C.3       1 <0>        -0.0373
     33 C26        -5.0509   -0.6545    1.2587 C.3       1 <0>        -0.0106
     34 C27        -5.7308    0.0807   -1.0545 C.3       1 <0>        -0.0366
     35 C28        -6.2194   -0.4732    0.2878 C.3       1 <0>         0.0072
     36 H1          2.5098   -0.4750    1.7830 H         1 <0>         0.0389
     37 H2          2.2072   -0.9983   -1.5562 H         1 <0>         0.0329
     38 H3          3.6981    2.7493    0.2887 H         1 <0>         0.0305
     39 H4          4.7336   -0.0689   -1.9477 H         1 <0>         0.0271
     40 H5          5.2515    0.8942   -0.6061 H         1 <0>         0.0271
     41 H6          5.6176   -1.7066    0.0040 H         1 <0>         0.0275
     42 H7          4.4336   -2.2155    1.2112 H         1 <0>         0.0275
     43 H8          1.0406    0.4909   -0.9996 H         1 <0>         0.0740
     44 H9          4.0380    2.2797   -2.0841 H         1 <0>         0.0268
     45 H10         2.6621    1.2092   -2.1476 H         1 <0>         0.0268
     46 H11         2.1123   -2.3787    1.1242 H         1 <0>         0.0604
     47 H12         6.2666    0.1882    1.2934 H         1 <0>         0.0342
     48 H13         5.7168   -0.8882    2.6182 H         1 <0>         0.0342
     49 H14         0.4196   -0.4352    1.7923 H         1 <0>         0.0310
     50 H15        -0.9727   -0.1862    0.8114 H         1 <0>         0.0310
     51 H16         0.7995    2.8329    1.7764 H         1 <0>         0.0237
     52 H17         2.4465    2.8000    2.3408 H         1 <0>         0.0237
     53 H18         1.3411    1.4862    2.7717 H         1 <0>         0.0237
     54 H19         4.1042   -3.3102   -1.1017 H         1 <0>         0.0233
     55 H20         4.3062   -2.0589   -2.3302 H         1 <0>         0.0233
     56 H21         2.9100   -3.1048   -2.3969 H         1 <0>         0.0233
     57 H22         1.5663    4.0838    0.0211 H         1 <0>         0.0233
     58 H23         2.7374    4.2466   -1.2807 H         1 <0>         0.0233
     59 H24         1.3117    3.2547   -1.5328 H         1 <0>         0.0233
     60 H25        -0.1524   -2.9387    1.9266 H         1 <0>         0.0239
     61 H26        -0.7504   -3.7542    0.4890 H         1 <0>         0.0239
     62 H27        -1.6152   -2.3559    1.1732 H         1 <0>         0.0239
     63 H28         0.2999   -1.5584   -2.1341 H         1 <0>         0.0573
     64 H29         1.2606   -3.8103   -1.1468 H         1 <0>         0.2098
     65 H30        -1.9397   -2.0922   -2.5904 H         1 <0>         0.0532
     66 H31        -2.3551   -2.3643   -0.8236 H         1 <0>         0.0532
     67 H32        -1.4259    3.8280   -1.1803 H         1 <0>         0.0490
     68 H33        -2.6352    2.8716   -2.0279 H         1 <0>         0.0490
     69 H34        -3.0703    0.5320   -0.3030 H         1 <0>         0.0437
     70 H35        -4.8978    1.3705    1.9932 H         1 <0>         0.0605
     71 H36        -4.6108    1.7236   -1.8482 H         1 <0>         0.0277
     72 H37        -5.6695    2.1555   -0.5048 H         1 <0>         0.0277
     73 H38        -5.4127   -1.0102    2.2325 H         1 <0>         0.0305
     74 H39        -4.3674   -1.4359    0.8975 H         1 <0>         0.0305
     75 H40        -5.0767   -0.6487   -1.5506 H         1 <0>         0.0281
     76 H41        -6.5819    0.2522   -1.7250 H         1 <0>         0.0281
     77 H42        -6.9348    0.2356    0.7237 H         1 <0>         0.0459
     78 H43        -3.4568    0.0061    3.1161 H         1 <0>         0.2098
     79 H44        -7.7114   -1.6182   -0.5139 H         1 <0>         0.1185
     80 H45        -7.2708   -2.0812    0.9884 H         1 <0>         0.1185
@<TRIPOS>BOND
     1    1   29 1
     2    1   30 1
     3    2   15 1
     4    2   27 1
     5    3   18 1
     6    3   64 1
     7    4   17 2
     8    5   27 2
     9    6   31 1
    10    6   78 1
    11    7   35 1
    12    7   79 1
    13    7   80 1
    14    8    9 1
    15    8   11 1
    16    8   13 1
    17    8   14 1
    18    9   10 1
    19    9   17 1
    20    9   36 1
    21   10   12 1
    22   10   15 1
    23   10   22 1
    24   11   18 1
    25   11   23 1
    26   11   37 1
    27   12   16 1
    28   12   24 1
    29   12   38 1
    30   13   16 1
    31   13   39 1
    32   13   40 1
    33   14   19 1
    34   14   41 1
    35   14   42 1
    36   15   21 1
    37   15   43 1
    38   16   44 1
    39   16   45 1
    40   17   19 1
    41   18   20 1
    42   18   46 1
    43   19   47 1
    44   19   48 1
    45   20   21 1
    46   20   25 1
    47   20   26 1
    48   21   49 1
    49   21   50 1
    50   22   51 1
    51   22   52 1
    52   22   53 1
    53   23   54 1
    54   23   55 1
    55   23   56 1
    56   24   57 1
    57   24   58 1
    58   24   59 1
    59   25   60 1
    60   25   61 1
    61   25   62 1
    62   26   28 2
    63   26   63 1
    64   27   29 1
    65   28   65 1
    66   28   66 1
    67   29   67 1
    68   29   68 1
    69   30   31 1
    70   30   32 1
    71   30   69 1
    72   31   33 1
    73   31   70 1
    74   32   34 1
    75   32   71 1
    76   32   72 1
    77   33   35 1
    78   33   73 1
    79   33   74 1
    80   34   35 1
    81   34   75 1
    82   34   76 1
    83   35   77 1
