@<TRIPOS>MOLECULE
DB12978
   44    47     0     0     0
SMALL
USER_CHARGES

@<TRIPOS>ATOM
      1 Cl1        -5.7803    3.8441    1.3813 Cl        1 <0>        -0.0820
      2 F1          8.9674   -0.3204   -0.5832 F         1 <0>        -0.1644
      3 F2          8.2519    0.5560   -2.4335 F         1 <0>        -0.1644
      4 F3          8.7342    1.8356   -0.7427 F         1 <0>        -0.1644
      5 N1         -5.5961   -0.8749   -1.9337 N.pl3     1 <0>        -0.3456
      6 N2          2.0163   -0.6652    0.0809 N.pl3     1 <0>        -0.3249
      7 N3         -6.4695    1.3546   -1.6693 N.2       1 <0>        -0.2360
      8 N4          0.0408   -1.9127   -0.3882 N.ar      1 <0>        -0.2402
      9 N5          5.8711    1.4852   -1.0301 N.ar      1 <0>        -0.2507
     10 C1         -4.3844   -1.0703   -0.0777 C.2       1 <0>        -0.0164
     11 C2         -3.4984   -1.6229    0.9664 C.3       1 <0>         0.0011
     12 C3         -4.9846    0.2166   -0.0839 C.2       1 <0>         0.0235
     13 C4         -2.0183   -1.3484    0.7460 C.ar      1 <0>        -0.0248
     14 C5         -5.7330    0.3067   -1.2539 C.2       1 <0>         0.1384
     15 C6         -4.7786   -1.7192   -1.2280 C.2       1 <0>         0.0076
     16 C7         -4.9848    1.3308    0.7707 C.2       1 <0>        -0.0310
     17 C8         -1.3692   -0.3279    1.4323 C.ar      1 <0>        -0.0536
     18 C9         -1.2751   -2.1053   -0.1453 C.ar      1 <0>         0.0332
     19 C10         0.6376   -0.9118    0.2973 C.ar      1 <0>         0.1189
     20 C11         2.7290    0.3686    0.7580 C.3       1 <0>         0.0371
     21 C12        -0.0160   -0.0990    1.2094 C.ar      1 <0>        -0.0216
     22 C13         4.1598    0.4111    0.2975 C.ar      1 <0>        -0.0123
     23 C14        -5.7315    2.4439    0.3887 C.2       1 <0>         0.0597
     24 C15        -6.4334    2.3982   -0.8084 C.2       1 <0>         0.0482
     25 C16         5.0824   -0.5315    0.7378 C.ar      1 <0>        -0.0537
     26 C17         4.6005    1.3903   -0.5780 C.ar      1 <0>         0.0329
     27 C18         6.3989   -0.4668    0.2951 C.ar      1 <0>        -0.0314
     28 C19         6.7395    0.5517   -0.5805 C.ar      1 <0>         0.1435
     29 C20         8.1440    0.6513   -1.0756 C.3       1 <0>         0.4342
     30 H1         -3.6376   -2.7103    1.0392 H         1 <0>         0.0363
     31 H2         -3.7930   -1.2389    1.9521 H         1 <0>         0.0363
     32 H3         -4.5518   -2.7055   -1.6088 H         1 <0>         0.0810
     33 H4         -6.0316   -1.0902   -2.8198 H         1 <0>         0.1668
     34 H5         -4.4210    1.3217    1.6986 H         1 <0>         0.0640
     35 H6         -1.9070    0.2946    2.1420 H         1 <0>         0.0622
     36 H7         -1.7245   -2.9166   -0.7094 H         1 <0>         0.0833
     37 H8          2.7265    0.2088    1.8440 H         1 <0>         0.0512
     38 H9          2.2725    1.3490    0.5709 H         1 <0>         0.0512
     39 H10         0.4581    0.7029    1.7628 H         1 <0>         0.0652
     40 H11         2.4788   -1.2681   -0.5903 H         1 <0>         0.1478
     41 H12        -7.0249    3.2513   -1.1334 H         1 <0>         0.0845
     42 H13         4.7863   -1.3192    1.4250 H         1 <0>         0.0622
     43 H14         3.9288    2.1531   -0.9594 H         1 <0>         0.0833
     44 H15         7.1203   -1.2009    0.6372 H         1 <0>         0.0638
@<TRIPOS>BOND
     1    1   23 1
     2    2   29 1
     3    3   29 1
     4    4   29 1
     5    5   14 1
     6    5   15 2
     7    5   33 1
     8    6   19 1
     9    6   20 1
    10    6   40 1
    11    7   14 2
    12    7   24 1
    13    8   18 ar
    14    8   19 ar
    15    9   26 ar
    16    9   28 ar
    17   10   11 1
    18   10   12 2
    19   10   15 1
    20   11   13 1
    21   11   30 1
    22   11   31 1
    23   12   14 1
    24   12   16 2
    25   13   17 ar
    26   13   18 ar
    27   15   32 1
    28   16   23 1
    29   16   34 1
    30   17   21 ar
    31   17   35 1
    32   18   36 1
    33   19   21 ar
    34   20   22 1
    35   20   37 1
    36   20   38 1
    37   21   39 1
    38   22   25 ar
    39   22   26 ar
    40   23   24 2
    41   24   41 1
    42   25   27 ar
    43   25   42 1
    44   26   43 1
    45   27   28 ar
    46   27   44 1
    47   28   29 1
