@<TRIPOS>MOLECULE
DB12483
   63    67     0     0     0
SMALL
USER_CHARGES

@<TRIPOS>ATOM
      1 O1         -8.9124   -1.9551    0.2811 O.3       1 <0>        -0.3772
      2 O2         -2.1872    1.1536   -1.3354 O.3       1 <0>        -0.4881
      3 O3         -0.0091   -0.5259   -1.1287 O.3       1 <0>        -0.4885
      4 O4          3.5800   -1.8800   -0.5685 O.2       1 <0>        -0.2515
      5 N1         -6.3051   -0.8137    0.3078 N.3       1 <0>        -0.2979
      6 N2          3.8374    2.2797    0.1205 N.pl3     1 <0>        -0.1257
      7 N3          3.1341    4.4601    0.3039 N.2       1 <0>        -0.0783
      8 N4          2.4969    0.4256   -0.4482 N.2       1 <0>        -0.0634
      9 N5          4.7243    0.0683   -0.0276 N.am      1 <0>        -0.1641
     10 N6          7.2262   -3.9570   -0.7472 N.ar      1 <0>        -0.2223
     11 N7          8.0828   -2.3113    0.7906 N.ar      1 <0>        -0.2223
     12 N8          9.3711   -4.1751    0.1796 N.pl3     1 <0>        -0.3275
     13 C1         -5.3849    0.3124    0.4530 C.3       1 <0>         0.0021
     14 C2         -7.2301   -0.5906   -0.8121 C.3       1 <0>         0.0224
     15 C3         -7.0607   -1.0335    1.5488 C.3       1 <0>         0.0224
     16 C4         -4.2328    0.1859   -0.5385 C.3       1 <0>        -0.0058
     17 C5         -8.1881   -1.7720   -0.9361 C.3       1 <0>         0.0604
     18 C6         -8.0216   -2.2052    1.3690 C.3       1 <0>         0.0604
     19 C7          2.8370    3.2147    0.0503 C.2       1 <0>         0.3278
     20 C8          5.0618    2.9504    0.4840 C.3       1 <0>         0.1329
     21 C9          1.5035    2.7128   -0.3103 C.ar      1 <0>         0.1114
     22 C10        -3.2442    1.3353   -0.3959 C.3       1 <0>         0.0909
     23 C11         4.5962    4.4117    0.6079 C.3       1 <0>         0.1683
     24 C12         1.3960    1.3225   -0.5458 C.ar      1 <0>         0.2022
     25 C13         3.6579    0.9319   -0.1235 C.2       1 <0>         0.4171
     26 C14        -0.9658    1.6559   -0.9973 C.ar      1 <0>         0.1655
     27 C15         0.1420    0.8101   -0.8912 C.ar      1 <0>         0.2047
     28 C16         0.4034    3.5631   -0.4146 C.ar      1 <0>        -0.0397
     29 C17        -0.8349    3.0256   -0.7599 C.ar      1 <0>        -0.0152
     30 C18         4.6116   -1.2896   -0.2584 C.2       1 <0>         0.3100
     31 C19        -0.3417   -1.3460   -0.0120 C.3       1 <0>         0.0791
     32 C20         5.8786   -2.0569   -0.1421 C.ar      1 <0>         0.0892
     33 C21         6.0896   -3.2345   -0.8295 C.ar      1 <0>         0.0462
     34 C22         6.9201   -1.6393    0.6612 C.ar      1 <0>         0.0462
     35 C23         8.1672   -3.4451    0.0687 C.ar      1 <0>         0.2125
     36 H1         -5.8980    1.2767    0.3457 H         1 <0>         0.0428
     37 H2         -4.9446    0.3057    1.4591 H         1 <0>         0.0428
     38 H3         -6.6910   -0.4869   -1.7591 H         1 <0>         0.0449
     39 H4         -7.8103    0.3275   -0.6504 H         1 <0>         0.0449
     40 H5         -7.6275   -0.1311    1.8125 H         1 <0>         0.0449
     41 H6         -6.3796   -1.2623    2.3765 H         1 <0>         0.0449
     42 H7         -3.7049   -0.7653   -0.3913 H         1 <0>         0.0310
     43 H8         -4.5926    0.1684   -1.5739 H         1 <0>         0.0310
     44 H9         -8.9165   -1.5796   -1.7303 H         1 <0>         0.0572
     45 H10        -7.6580   -2.6981   -1.1897 H         1 <0>         0.0572
     46 H11        -7.4851   -3.1457    1.1942 H         1 <0>         0.0572
     47 H12        -8.6271   -2.3323    2.2720 H         1 <0>         0.0572
     48 H13         5.8270    2.8476   -0.2924 H         1 <0>         0.0773
     49 H14         5.4587    2.5833    1.4360 H         1 <0>         0.0773
     50 H15        -2.8523    1.3591    0.6292 H         1 <0>         0.0697
     51 H16        -3.7416    2.2895   -0.6044 H         1 <0>         0.0697
     52 H17         4.7701    4.7920    1.6201 H         1 <0>         0.0829
     53 H18         5.1356    5.0540   -0.0962 H         1 <0>         0.0829
     54 H19         0.4910    4.6302   -0.2348 H         1 <0>         0.0628
     55 H20        -1.6911    3.6887   -0.8500 H         1 <0>         0.0655
     56 H21         5.6272    0.4746    0.1916 H         1 <0>         0.2552
     57 H22        -0.5039   -2.3656   -0.3725 H         1 <0>         0.0660
     58 H23        -1.2592   -0.9970    0.4714 H         1 <0>         0.0660
     59 H24         0.4789   -1.3589    0.7119 H         1 <0>         0.0660
     60 H25         5.3377   -3.6522   -1.4917 H         1 <0>         0.0839
     61 H26         6.8691   -0.7465    1.2749 H         1 <0>         0.0839
     62 H27         9.4817   -5.0334   -0.3426 H         1 <0>         0.1452
     63 H28        10.1073   -3.8312    0.7806 H         1 <0>         0.1452
@<TRIPOS>BOND
     1    1   17 1
     2    1   18 1
     3    2   22 1
     4    2   26 1
     5    3   27 1
     6    3   31 1
     7    4   30 2
     8    5   13 1
     9    5   14 1
    10    5   15 1
    11    6   19 1
    12    6   20 1
    13    6   25 1
    14    7   19 2
    15    7   23 1
    16    8   24 1
    17    8   25 2
    18    9   25 1
    19    9   30 am
    20    9   56 1
    21   10   33 ar
    22   10   35 ar
    23   11   34 ar
    24   11   35 ar
    25   12   35 1
    26   12   62 1
    27   12   63 1
    28   13   16 1
    29   13   36 1
    30   13   37 1
    31   14   17 1
    32   14   38 1
    33   14   39 1
    34   15   18 1
    35   15   40 1
    36   15   41 1
    37   16   22 1
    38   16   42 1
    39   16   43 1
    40   17   44 1
    41   17   45 1
    42   18   46 1
    43   18   47 1
    44   19   21 1
    45   20   23 1
    46   20   48 1
    47   20   49 1
    48   21   24 ar
    49   21   28 ar
    50   22   50 1
    51   22   51 1
    52   23   52 1
    53   23   53 1
    54   24   27 ar
    55   26   27 ar
    56   26   29 ar
    57   28   29 ar
    58   28   54 1
    59   29   55 1
    60   30   32 1
    61   31   57 1
    62   31   58 1
    63   31   59 1
    64   32   33 ar
    65   32   34 ar
    66   33   60 1
    67   34   61 1
