@<TRIPOS>MOLECULE
DB12245
   30    32     0     0     0
SMALL
USER_CHARGES

@<TRIPOS>ATOM
      1 Cl1         1.1469    3.9289   -0.5701 Cl        1 <0>        -0.0797
      2 Cl2         3.0059   -1.1724   -2.8010 Cl        1 <0>        -0.0782
      3 Cl3         4.8866   -3.0698   -1.0058 Cl        1 <0>        -0.0819
      4 S1         -5.1256   -0.5991    0.5904 S.3       1 <0>        -0.0913
      5 O1          1.9086    1.1224   -1.2757 O.3       1 <0>        -0.4530
      6 N1         -3.2912    1.3539    0.3566 N.pl3     1 <0>        -0.3329
      7 N2         -2.5194   -0.6498   -0.2168 N.2       1 <0>        -0.2219
      8 C1         -1.9853    1.5558   -0.0096 C.2       1 <0>         0.0685
      9 C2         -1.5255    0.2904   -0.3633 C.2       1 <0>         0.0935
     10 C3          0.6188    1.2774   -0.8545 C.2       1 <0>         0.1489
     11 C4         -0.1971    0.1406   -0.7956 C.2       1 <0>         0.0096
     12 C5         -1.1909    2.7017   -0.0603 C.2       1 <0>        -0.0143
     13 C6          0.1287    2.5343   -0.4927 C.2       1 <0>         0.0852
     14 C7         -3.5630    0.0215    0.2159 C.cat     1 <0>         0.1670
     15 C8          2.7236    0.2799   -0.5424 C.ar      1 <0>         0.1481
     16 C9          3.3047   -0.8330   -1.1270 C.ar      1 <0>         0.1014
     17 C10         2.9367    0.5884    0.7919 C.ar      1 <0>        -0.0178
     18 C11         4.1215   -1.6609   -0.3570 C.ar      1 <0>         0.0628
     19 C12         3.7536   -0.2396    1.5616 C.ar      1 <0>        -0.0568
     20 C13         4.3459   -1.3644    0.9872 C.ar      1 <0>        -0.0417
     21 C14        -4.9093   -2.3662    0.2267 C.3       1 <0>        -0.0107
     22 H1          0.1683   -0.8398   -1.0839 H         1 <0>         0.0677
     23 H2         -1.5868    3.6710    0.2242 H         1 <0>         0.0654
     24 H3         -3.9384    2.0631    0.6742 H         1 <0>         0.1679
     25 H4          2.4939    1.4656    1.2537 H         1 <0>         0.0655
     26 H5          3.9305   -0.0073    2.6077 H         1 <0>         0.0619
     27 H6          4.9801   -1.9980    1.6023 H         1 <0>         0.0633
     28 H7         -4.1286   -2.7940    0.8617 H         1 <0>         0.0345
     29 H8         -4.6454   -2.5103   -0.8247 H         1 <0>         0.0345
     30 H9         -5.8477   -2.8902    0.4261 H         1 <0>         0.0345
@<TRIPOS>BOND
     1    1   13 1
     2    2   16 1
     3    3   18 1
     4    4   14 1
     5    4   21 1
     6    5   10 1
     7    5   15 1
     8    6    8 1
     9    6   14 2
    10    6   24 1
    11    7    9 2
    12    7   14 1
    13    8    9 1
    14    8   12 2
    15    9   11 2
    16   10   11 1
    17   10   13 2
    18   11   22 1
    19   12   13 1
    20   12   23 1
    21   15   16 ar
    22   15   17 ar
    23   16   18 ar
    24   17   19 ar
    25   17   25 1
    26   18   20 ar
    27   19   20 ar
    28   19   26 1
    29   20   27 1
    30   21   28 1
    31   21   29 1
    32   21   30 1
