@<TRIPOS>MOLECULE
DB12097
   38    37     0     0     0
SMALL
USER_CHARGES

@<TRIPOS>ATOM
      1 S1          5.0992   -0.5105    0.0281 S.o2      1 <0>         0.0793
      2 S2         -5.0476   -0.4565   -0.0082 S.o2      1 <0>         0.0793
      3 O1          1.1711    1.8731    0.9660 O.3       1 <0>        -0.3865
      4 O2         -1.0892    1.9392   -0.7834 O.3       1 <0>        -0.3865
      5 O3          1.2799   -0.3604   -1.9333 O.3       1 <0>        -0.3868
      6 O4         -1.2013   -0.4924    1.9528 O.3       1 <0>        -0.3868
      7 O5          3.5128   -0.3059   -0.2903 O.3       1 <0>        -0.2360
      8 O6         -3.4557   -0.3035    0.3102 O.3       1 <0>        -0.2360
      9 O7          5.5350    0.4957    0.9751 O.2       1 <0>        -0.1475
     10 O8          5.8115   -0.7612   -1.2084 O.2       1 <0>        -0.1475
     11 O9         -5.4745    0.6290   -0.8677 O.2       1 <0>        -0.1475
     12 O10        -5.7539   -0.7942    1.2109 O.2       1 <0>        -0.1475
     13 C1          0.8040    0.7657    0.1437 C.3       1 <0>         0.1115
     14 C2         -0.7228    0.7760   -0.0418 C.3       1 <0>         0.1115
     15 C3          1.5898    0.8205   -1.1820 C.3       1 <0>         0.1090
     16 C4         -1.5066    0.7388    1.2855 C.3       1 <0>         0.1090
     17 C5          3.1067    0.8555   -1.0102 C.3       1 <0>         0.1049
     18 C6         -3.0244    0.7901    1.1169 C.3       1 <0>         0.1049
     19 C7          4.9352   -2.0507    0.8941 C.3       1 <0>         0.0817
     20 C8         -4.9162   -1.9249   -0.9961 C.3       1 <0>         0.0817
     21 H1          1.0761   -0.1469    0.6867 H         1 <0>         0.0647
     22 H2         -1.0052   -0.0948   -0.6439 H         1 <0>         0.0647
     23 H3          1.2999    1.6963   -1.7739 H         1 <0>         0.0644
     24 H4         -1.2049    1.5649    1.9383 H         1 <0>         0.0644
     25 H5          3.5936    0.8396   -1.9918 H         1 <0>         0.0610
     26 H6          3.4213    1.7540   -0.4695 H         1 <0>         0.0610
     27 H7         -3.5079    0.7037    2.0965 H         1 <0>         0.0610
     28 H8         -3.3330    1.7323    0.6519 H         1 <0>         0.0610
     29 H9          1.0337    2.6864    0.4514 H         1 <0>         0.2100
     30 H10        -0.9450    2.7141   -0.2144 H         1 <0>         0.2100
     31 H11         0.3868   -0.2491   -2.3001 H         1 <0>         0.2100
     32 H12        -1.5060   -1.2207    1.3847 H         1 <0>         0.2100
     33 H13         4.3008   -1.8988    1.7694 H         1 <0>         0.0489
     34 H14         4.4975   -2.7904    0.2209 H         1 <0>         0.0489
     35 H15         5.9309   -2.3727    1.2061 H         1 <0>         0.0489
     36 H16        -4.2867   -1.7133   -1.8624 H         1 <0>         0.0489
     37 H17        -4.4854   -2.7229   -0.3883 H         1 <0>         0.0489
     38 H18        -5.9197   -2.2052   -1.3232 H         1 <0>         0.0489
@<TRIPOS>BOND
     1    1    7 1
     2    1    9 2
     3    1   10 2
     4    1   19 1
     5    2    8 1
     6    2   11 2
     7    2   12 2
     8    2   20 1
     9    3   13 1
    10    3   29 1
    11    4   14 1
    12    4   30 1
    13    5   15 1
    14    5   31 1
    15    6   16 1
    16    6   32 1
    17    7   17 1
    18    8   18 1
    19   13   14 1
    20   13   15 1
    21   13   21 1
    22   14   16 1
    23   14   22 1
    24   15   17 1
    25   15   23 1
    26   16   18 1
    27   16   24 1
    28   17   25 1
    29   17   26 1
    30   18   27 1
    31   18   28 1
    32   19   33 1
    33   19   34 1
    34   19   35 1
    35   20   36 1
    36   20   37 1
    37   20   38 1
