@<TRIPOS>MOLECULE
DB12127
   70    74     0     0     0
SMALL
USER_CHARGES

@<TRIPOS>ATOM
      1 S1          6.2885   -1.6984    1.0784 S.o2      1 <0>        -0.0042
      2 S2         -2.5372    0.0509    1.0111 S.3       1 <0>        -0.1273
      3 O1          5.9372   -3.0791    1.3469 O.2       1 <0>        -0.1720
      4 O2          7.1727   -0.9767    1.9746 O.2       1 <0>        -0.1720
      5 O3          7.8668    1.5189   -1.3455 O.2       1 <0>        -0.2754
      6 O4          3.6035    1.9888   -0.6272 O.3       1 <0>        -0.4260
      7 O5          3.9860    0.3382   -2.1983 O.2       1 <0>        -0.2486
      8 O6          1.3147    1.9510   -1.3581 O.3       1 <0>        -0.4260
      9 O7         -2.6704    3.6820   -1.4808 O.2       1 <0>        -0.2734
     10 O8          0.8868    3.0488    0.6295 O.2       1 <0>        -0.2486
     11 O9         -5.8941    1.1530    1.8810 O.2       1 <0>        -0.2737
     12 N1          6.3175   -0.2014   -0.8956 N.am      1 <0>        -0.2633
     13 N2         -1.7361    2.4039    0.2695 N.am      1 <0>        -0.2708
     14 N3         -4.8360    1.7853   -0.0830 N.am      1 <0>        -0.3002
     15 N4         -8.1046    0.3712    0.4200 N.3       1 <0>        -0.3163
     16 C1          4.7445   -0.7065    0.8399 C.3       1 <0>         0.1130
     17 C2          6.8576   -1.5390   -0.6069 C.3       1 <0>         0.1535
     18 C3          5.2257    0.3817   -0.1393 C.3       1 <0>         0.1491
     19 C4          8.2447   -0.9709   -0.9292 C.3       1 <0>         0.0629
     20 C5          7.5259    0.3743   -1.1503 C.2       1 <0>         0.2211
     21 C6          4.2899   -0.1161    2.1752 C.3       1 <0>        -0.0379
     22 C7          3.6454   -1.6165    0.2696 C.3       1 <0>        -0.0379
     23 C8         -2.6555    1.8583    1.2724 C.3       1 <0>         0.1005
     24 C9          4.2118    0.8733   -1.1214 C.2       1 <0>         0.3328
     25 C10        -0.7299    1.5359   -0.3080 C.3       1 <0>         0.1382
     26 C11        -0.7598    0.2060    0.4756 C.3       1 <0>         0.0417
     27 C12        -3.7874    2.5902    0.5384 C.3       1 <0>         0.1277
     28 C13        -2.6938    3.0753   -0.4340 C.2       1 <0>         0.2402
     29 C14        -0.4063   -0.9795   -0.4242 C.3       1 <0>        -0.0484
     30 C15         0.1162    0.1893    1.7356 C.3       1 <0>        -0.0484
     31 C16         0.5693    2.2752   -0.2636 C.2       1 <0>         0.3319
     32 C17         2.5989    2.5872   -1.4628 C.3       1 <0>         0.2389
     33 C18        -5.8202    1.1216    0.6536 C.2       1 <0>         0.2350
     34 C19        -6.7870    0.3308   -0.2209 C.3       1 <0>         0.1079
     35 C20        -6.2907   -1.0847   -0.4311 C.ar      1 <0>        -0.0219
     36 C21        -5.4618   -1.3796   -1.5136 C.ar      1 <0>        -0.0566
     37 C22        -6.6621   -2.0935    0.4580 C.ar      1 <0>        -0.0566
     38 C23        -5.0046   -2.6831   -1.7072 C.ar      1 <0>        -0.0614
     39 C24        -6.2046   -3.3969    0.2644 C.ar      1 <0>        -0.0614
     40 C25        -5.3758   -3.6917   -0.8181 C.ar      1 <0>        -0.0617
     41 H1          6.4710   -2.3043   -1.2858 H         1 <0>         0.0750
     42 H2          5.6508    1.2410    0.3959 H         1 <0>         0.0639
     43 H3          8.9676   -0.9636   -0.1103 H         1 <0>         0.0393
     44 H4          8.7104   -1.3717   -1.8336 H         1 <0>         0.0393
     45 H5          3.4076    0.5175    2.0452 H         1 <0>         0.0251
     46 H6          5.0709    0.5016    2.6316 H         1 <0>         0.0251
     47 H7          4.0421   -0.9067    2.8918 H         1 <0>         0.0251
     48 H8          3.3918   -2.4182    0.9721 H         1 <0>         0.0251
     49 H9          2.7284   -1.0533    0.0784 H         1 <0>         0.0251
     50 H10         3.9545   -2.0921   -0.6672 H         1 <0>         0.0251
     51 H11        -2.4357    2.2082    2.2852 H         1 <0>         0.0640
     52 H12        -1.0144    1.3846   -1.3586 H         1 <0>         0.0631
     53 H13        -4.2160    3.4213    1.1121 H         1 <0>         0.0622
     54 H14         0.6089   -0.8771   -0.8206 H         1 <0>         0.0244
     55 H15        -1.0808   -1.0514   -1.2856 H         1 <0>         0.0244
     56 H16        -0.4549   -1.9299    0.1196 H         1 <0>         0.0244
     57 H17        -0.1010    1.0277    2.4066 H         1 <0>         0.0244
     58 H18         1.1757    0.2485    1.4706 H         1 <0>         0.0244
     59 H19        -0.0172   -0.7382    2.3052 H         1 <0>         0.0244
     60 H20        -4.8598    1.6914   -1.0957 H         1 <0>         0.1496
     61 H21         2.9067    2.5597   -2.5145 H         1 <0>         0.1168
     62 H22         2.5205    3.6468   -1.1925 H         1 <0>         0.1168
     63 H23        -6.8884    0.8272   -1.1941 H         1 <0>         0.0605
     64 H24        -8.4134    1.3396    0.5013 H         1 <0>         0.1192
     65 H25        -8.7888   -0.0884   -0.1807 H         1 <0>         0.1192
     66 H26        -5.1640   -0.6032   -2.2131 H         1 <0>         0.0621
     67 H27        -7.2917   -1.8943    1.3205 H         1 <0>         0.0621
     68 H28        -4.3582   -2.9124   -2.5493 H         1 <0>         0.0618
     69 H29        -6.4900   -4.1817    0.9589 H         1 <0>         0.0618
     70 H30        -5.0184   -4.7063   -0.9680 H         1 <0>         0.0618
@<TRIPOS>BOND
     1    1    3 2
     2    1    4 2
     3    1   16 1
     4    1   17 1
     5    2   23 1
     6    2   26 1
     7    5   20 2
     8    6   24 1
     9    6   32 1
    10    7   24 2
    11    8   31 1
    12    8   32 1
    13    9   28 2
    14   10   31 2
    15   11   33 2
    16   12   17 1
    17   12   18 1
    18   12   20 am
    19   13   23 1
    20   13   25 1
    21   13   28 am
    22   14   27 1
    23   14   33 am
    24   14   60 1
    25   15   34 1
    26   15   64 1
    27   15   65 1
    28   16   18 1
    29   16   21 1
    30   16   22 1
    31   17   19 1
    32   17   41 1
    33   18   24 1
    34   18   42 1
    35   19   20 1
    36   19   43 1
    37   19   44 1
    38   21   45 1
    39   21   46 1
    40   21   47 1
    41   22   48 1
    42   22   49 1
    43   22   50 1
    44   23   27 1
    45   23   51 1
    46   25   26 1
    47   25   31 1
    48   25   52 1
    49   26   29 1
    50   26   30 1
    51   27   28 1
    52   27   53 1
    53   29   54 1
    54   29   55 1
    55   29   56 1
    56   30   57 1
    57   30   58 1
    58   30   59 1
    59   32   61 1
    60   32   62 1
    61   33   34 1
    62   34   35 1
    63   34   63 1
    64   35   36 ar
    65   35   37 ar
    66   36   38 ar
    67   36   66 1
    68   37   39 ar
    69   37   67 1
    70   38   40 ar
    71   38   68 1
    72   39   40 ar
    73   39   69 1
    74   40   70 1
