@<TRIPOS>MOLECULE
DB12877
   62    66     0     0     0
SMALL
USER_CHARGES

@<TRIPOS>ATOM
      1 O1          6.4007   -2.8029   -0.0638 O.2       1 <0>        -0.2465
      2 N1         -1.8575   -0.4102    0.2528 N.3       1 <0>        -0.2891
      3 N2          0.6731   -1.7827    0.5198 N.3       1 <0>        -0.2998
      4 N3          4.8654   -1.0035   -0.3237 N.am      1 <0>        -0.2921
      5 N4          7.0949   -0.5601   -0.3465 N.am      1 <0>        -0.3060
      6 C1         -1.6837   -1.7878   -0.2239 C.3       1 <0>         0.0126
      7 C2         -0.5847    0.3183    0.1882 C.3       1 <0>         0.0126
      8 C3         -0.5997   -2.5115    0.5823 C.3       1 <0>         0.0117
      9 C4          0.4990   -0.4047    0.9955 C.3       1 <0>         0.0117
     10 C5         -2.8901    0.2794   -0.5179 C.3       1 <0>         0.0610
     11 C6          1.7047   -2.4720    1.2923 C.3       1 <0>         0.0006
     12 C7          3.0662   -1.7815    1.1730 C.3       1 <0>        -0.0220
     13 C8         -4.1736   -0.5313   -0.6224 C.ar      1 <0>        -0.0259
     14 C9         -3.1505    1.6890   -0.0078 C.ar      1 <0>        -0.0259
     15 C10         3.6028   -1.6866   -0.2540 C.3       1 <0>         0.0293
     16 C11        -5.1460   -0.3693    0.3434 C.ar      1 <0>        -0.0568
     17 C12        -2.9615    1.9594    1.3323 C.ar      1 <0>        -0.0568
     18 C13        -4.3268   -1.4049   -1.6798 C.ar      1 <0>        -0.0568
     19 C14        -3.5683    2.6551   -0.9005 C.ar      1 <0>        -0.0568
     20 C15         5.0397    0.3793   -0.5023 C.ar      1 <0>         0.0696
     21 C16         6.1484   -1.6167   -0.2231 C.2       1 <0>         0.3276
     22 C17         6.4081    0.6426   -0.5151 C.ar      1 <0>         0.0670
     23 C18        -6.3223   -1.1127    0.2475 C.ar      1 <0>        -0.0614
     24 C19        -3.2006    3.2518    1.7999 C.ar      1 <0>        -0.0614
     25 C20        -5.5031   -2.1484   -1.7757 C.ar      1 <0>        -0.0614
     26 C21        -3.8073    3.9475   -0.4329 C.ar      1 <0>        -0.0614
     27 C22         4.1100    1.3874   -0.6496 C.ar      1 <0>        -0.0360
     28 C23        -6.5007   -2.0023   -0.8121 C.ar      1 <0>        -0.0617
     29 C24        -3.6235    4.2457    0.9171 C.ar      1 <0>        -0.0617
     30 C25         6.9143    1.9136   -0.6741 C.ar      1 <0>        -0.0362
     31 C26         4.5999    2.6877   -0.8125 C.ar      1 <0>        -0.0597
     32 C27         5.9865    2.9477   -0.8244 C.ar      1 <0>        -0.0597
     33 H1         -2.5843   -2.3896   -0.0687 H         1 <0>         0.0439
     34 H2         -1.4197   -1.8148   -1.2895 H         1 <0>         0.0439
     35 H3         -0.2487    0.4133   -0.8545 H         1 <0>         0.0439
     36 H4         -0.6403    1.3346    0.5875 H         1 <0>         0.0439
     37 H5         -0.4714   -3.5170    0.1633 H         1 <0>         0.0439
     38 H6         -0.9309   -2.6309    1.6231 H         1 <0>         0.0439
     39 H7          1.4119    0.1829    0.8671 H         1 <0>         0.0439
     40 H8          0.2401   -0.3851    2.0628 H         1 <0>         0.0439
     41 H9         -2.5105    0.4020   -1.5458 H         1 <0>         0.0562
     42 H10         1.8118   -3.5001    0.9240 H         1 <0>         0.0427
     43 H11         1.4278   -2.5393    2.3524 H         1 <0>         0.0427
     44 H12         3.0621   -0.7959    1.6518 H         1 <0>         0.0295
     45 H13         3.7836   -2.3658    1.7663 H         1 <0>         0.0295
     46 H14         2.8944   -1.1878   -0.9232 H         1 <0>         0.0494
     47 H15         3.7498   -2.7017   -0.6422 H         1 <0>         0.0494
     48 H16        -5.0405    0.2907    1.1959 H         1 <0>         0.0621
     49 H17        -2.6616    1.2046    2.0526 H         1 <0>         0.0621
     50 H18        -3.5656   -1.5191   -2.4456 H         1 <0>         0.0621
     51 H19        -3.7158    2.4320   -1.9529 H         1 <0>         0.0621
     52 H20         8.1028   -0.6525   -0.3186 H         1 <0>         0.1704
     53 H21        -7.0974   -1.0037    1.0006 H         1 <0>         0.0618
     54 H22        -3.0641    3.4828    2.8522 H         1 <0>         0.0618
     55 H23        -5.6434   -2.8389   -2.6021 H         1 <0>         0.0618
     56 H24        -4.1374    4.7212   -1.1200 H         1 <0>         0.0618
     57 H25         3.0435    1.2001   -0.6446 H         1 <0>         0.0639
     58 H26        -7.4164   -2.5817   -0.8863 H         1 <0>         0.0618
     59 H27        -3.8114    5.2515    1.2816 H         1 <0>         0.0618
     60 H28         7.9794    2.1116   -0.6831 H         1 <0>         0.0639
     61 H29         3.9024    3.5127   -0.9325 H         1 <0>         0.0618
     62 H30         6.3358    3.9690   -0.9532 H         1 <0>         0.0618
@<TRIPOS>BOND
     1    1   21 2
     2    2    6 1
     3    2    7 1
     4    2   10 1
     5    3    8 1
     6    3    9 1
     7    3   11 1
     8    4   15 1
     9    4   20 2
    10    4   21 am
    11    5   21 am
    12    5   22 2
    13    5   52 1
    14    6    8 1
    15    6   33 1
    16    6   34 1
    17    7    9 1
    18    7   35 1
    19    7   36 1
    20    8   37 1
    21    8   38 1
    22    9   39 1
    23    9   40 1
    24   10   13 1
    25   10   14 1
    26   10   41 1
    27   11   12 1
    28   11   42 1
    29   11   43 1
    30   12   15 1
    31   12   44 1
    32   12   45 1
    33   13   16 ar
    34   13   18 ar
    35   14   17 ar
    36   14   19 ar
    37   15   46 1
    38   15   47 1
    39   16   23 ar
    40   16   48 1
    41   17   24 ar
    42   17   49 1
    43   18   25 ar
    44   18   50 1
    45   19   26 ar
    46   19   51 1
    47   20   22 ar
    48   20   27 ar
    49   22   30 ar
    50   23   28 ar
    51   23   53 1
    52   24   29 ar
    53   24   54 1
    54   25   28 ar
    55   25   55 1
    56   26   29 ar
    57   26   56 1
    58   27   31 ar
    59   27   57 1
    60   28   58 1
    61   29   59 1
    62   30   32 ar
    63   30   60 1
    64   31   32 ar
    65   31   61 1
    66   32   62 1
