@<TRIPOS>MOLECULE
DB12147
   63    66     0     0     0
SMALL
USER_CHARGES

@<TRIPOS>ATOM
      1 O1          0.6792   -3.2653   -3.0179 O.3       1 <0>        -0.4949
      2 O2          1.8106   -4.2514    1.5134 O.3       1 <0>        -0.4949
      3 N1          1.0273    0.3254    0.1910 N.pl3     1 <0>        -0.2986
      4 N2          4.5464    1.4231    0.7985 N.3       1 <0>        -0.3123
      5 N3         -3.7415    0.9004    0.1933 N.ar      1 <0>        -0.2435
      6 N4         -3.4232    3.6105   -0.3300 N.ar      1 <0>        -0.2513
      7 N5         -7.6672   -0.3513    0.5255 N.pl3     1 <0>        -0.2738
      8 N6         -8.3507    0.7884    0.3262 N.2       1 <0>        -0.1792
      9 C1          2.1764    0.8338    0.9588 C.3       1 <0>         0.0298
     10 C2          3.4005    0.9136    0.0557 C.3       1 <0>         0.0122
     11 C3          5.7267    1.4948   -0.0514 C.3       1 <0>         0.0020
     12 C4         -0.1003    1.1599    0.0578 C.ar      1 <0>         0.0361
     13 C5          1.1002   -1.0603   -0.1290 C.ar      1 <0>         0.0409
     14 C6         -1.3832    0.6311    0.1887 C.ar      1 <0>        -0.0128
     15 C7          0.0584    2.5127   -0.2034 C.ar      1 <0>        -0.0382
     16 C8          6.3637    0.1150   -0.1896 C.3       1 <0>        -0.0499
     17 C9          6.7146    2.4982    0.5351 C.3       1 <0>        -0.0499
     18 C10        -2.5143    1.4342    0.0627 C.ar      1 <0>         0.0916
     19 C11         1.4226   -1.9885    0.8610 C.ar      1 <0>         0.0016
     20 C12         0.8503   -1.4894   -1.4325 C.ar      1 <0>         0.0016
     21 C13        -2.3532    2.8065   -0.2022 C.ar      1 <0>         0.0893
     22 C14        -1.0668    3.3251   -0.3313 C.ar      1 <0>        -0.0325
     23 C15         0.9226   -2.8465   -1.7459 C.ar      1 <0>         0.1253
     24 C16         1.4951   -3.3458    0.5475 C.ar      1 <0>         0.1253
     25 C17         1.2450   -3.7748   -0.7559 C.ar      1 <0>         0.0219
     26 C18        -4.7990    1.7215    0.0622 C.ar      1 <0>         0.0927
     27 C19        -4.6421    3.0572   -0.1960 C.ar      1 <0>         0.0543
     28 C20        -6.0956    1.1315    0.2064 C.2       1 <0>         0.0392
     29 C21        -6.3130   -0.2000    0.4640 C.2       1 <0>         0.0344
     30 C22        -7.3853    1.6907    0.1317 C.2       1 <0>         0.0586
     31 C23         0.3559   -2.2630   -3.9805 C.3       1 <0>         0.0788
     32 C24         2.0550   -3.7437    2.8243 C.3       1 <0>         0.0788
     33 C25        -8.3810   -1.5807    0.7754 C.3       1 <0>         0.0302
     34 H1          2.3914    0.2248    1.8439 H         1 <0>         0.0480
     35 H2          1.9723    1.8277    1.3793 H         1 <0>         0.0480
     36 H3          3.1793    1.5670   -0.7979 H         1 <0>         0.0440
     37 H4          3.6209   -0.0804   -0.3458 H         1 <0>         0.0440
     38 H5          5.4613    1.8651   -1.0503 H         1 <0>         0.0455
     39 H6          4.3172    2.3509    1.1554 H         1 <0>         0.1222
     40 H7         -1.5228   -0.4269    0.4048 H         1 <0>         0.0658
     41 H8          1.0378    2.9628   -0.3376 H         1 <0>         0.0637
     42 H9          7.0371    2.2044    1.5405 H         1 <0>         0.0245
     43 H10         6.2717    3.4985    0.6001 H         1 <0>         0.0245
     44 H11         6.6101   -0.3121    0.7894 H         1 <0>         0.0245
     45 H12         5.7132   -0.5916   -0.7137 H         1 <0>         0.0245
     46 H13         7.2945    0.1795   -0.7644 H         1 <0>         0.0245
     47 H14         7.6084    2.5742   -0.0938 H         1 <0>         0.0245
     48 H15         1.5616   -1.6316    1.8736 H         1 <0>         0.0673
     49 H16         0.6109   -0.7255   -2.1653 H         1 <0>         0.0673
     50 H17        -0.9281    4.3837   -0.5416 H         1 <0>         0.0640
     51 H18         1.3017   -4.8325   -1.0002 H         1 <0>         0.0691
     52 H19        -5.4687    3.7485   -0.3078 H         1 <0>         0.0851
     53 H20        -5.6423   -1.0375    0.6061 H         1 <0>         0.0833
     54 H21        -7.6744    2.7153   -0.0555 H         1 <0>         0.0854
     55 H22         0.1918   -2.7734   -4.9353 H         1 <0>         0.0660
     56 H23         1.1871   -1.5656   -4.1303 H         1 <0>         0.0660
     57 H24        -0.5782   -1.7491   -3.7289 H         1 <0>         0.0660
     58 H25         2.3044   -4.5998    3.4599 H         1 <0>         0.0660
     59 H26         1.1579   -3.2821    3.2509 H         1 <0>         0.0660
     60 H27         2.9198   -3.0716    2.8429 H         1 <0>         0.0660
     61 H28        -7.6671   -2.3964    0.9127 H         1 <0>         0.0473
     62 H29        -9.0225   -1.7867   -0.0849 H         1 <0>         0.0473
     63 H30        -8.9800   -1.4525    1.6804 H         1 <0>         0.0473
@<TRIPOS>BOND
     1    1   23 1
     2    1   31 1
     3    2   24 1
     4    2   32 1
     5    3    9 1
     6    3   12 1
     7    3   13 1
     8    4   10 1
     9    4   11 1
    10    4   39 1
    11    5   18 ar
    12    5   26 ar
    13    6   21 ar
    14    6   27 ar
    15    7    8 1
    16    7   29 2
    17    7   33 1
    18    8   30 1
    19    9   10 1
    20    9   34 1
    21    9   35 1
    22   10   36 1
    23   10   37 1
    24   11   16 1
    25   11   17 1
    26   11   38 1
    27   12   14 ar
    28   12   15 ar
    29   13   19 ar
    30   13   20 ar
    31   14   18 ar
    32   14   40 1
    33   15   22 ar
    34   15   41 1
    35   16   44 1
    36   16   45 1
    37   16   46 1
    38   17   42 1
    39   17   43 1
    40   17   47 1
    41   18   21 ar
    42   19   24 ar
    43   19   48 1
    44   20   23 ar
    45   20   49 1
    46   21   22 ar
    47   22   50 1
    48   23   25 ar
    49   24   25 ar
    50   25   51 1
    51   26   27 ar
    52   26   28 1
    53   27   52 1
    54   28   29 1
    55   28   30 2
    56   29   53 1
    57   30   54 1
    58   31   55 1
    59   31   56 1
    60   31   57 1
    61   32   58 1
    62   32   59 1
    63   32   60 1
    64   33   61 1
    65   33   62 1
    66   33   63 1
