@<TRIPOS>MOLECULE
DB12821
   14    13     0     0     0
SMALL
USER_CHARGES

@<TRIPOS>ATOM
      1 F1         -0.6200   -0.6913   -1.6391 F         1 <0>        -0.1888
      2 F2         -1.3335   -1.8093    0.0869 F         1 <0>        -0.1888
      3 F3          0.6158   -0.6808    1.6350 F         1 <0>        -0.1888
      4 F4          1.3286   -1.8105   -0.0839 F         1 <0>        -0.1888
      5 F5         -1.0689    1.6829   -0.3179 F         1 <0>        -0.1648
      6 F6         -1.7180    0.5819    1.4408 F         1 <0>        -0.1648
      7 F7         -2.8221    0.3861   -0.4296 F         1 <0>        -0.1648
      8 F8          1.0536    1.6782    0.3042 F         1 <0>        -0.1648
      9 F9          2.8017    0.3837    0.4621 F         1 <0>        -0.1648
     10 F10         1.7710    0.5808   -1.4419 F         1 <0>        -0.1648
     11 C1         -0.7093   -0.6596   -0.2793 C.3       1 <0>         0.4115
     12 C2          0.7048   -0.6581    0.2748 C.3       1 <0>         0.4115
     13 C3         -1.5857    0.5087    0.0969 C.3       1 <0>         0.4605
     14 C4          1.5820    0.5072   -0.1090 C.3       1 <0>         0.4605
@<TRIPOS>BOND
     1    1   11 1
     2    2   11 1
     3    3   12 1
     4    4   12 1
     5    5   13 1
     6    6   13 1
     7    7   13 1
     8    8   14 1
     9    9   14 1
    10   10   14 1
    11   11   12 1
    12   11   13 1
    13   12   14 1
