@<TRIPOS>MOLECULE
DB12141
   84    88     0     0     0
SMALL
USER_CHARGES

@<TRIPOS>ATOM
      1 O1         -0.4541    0.3861    0.9061 O.3       1 <0>        -0.4932
      2 O2          5.2508    4.5260   -1.3426 O.3       1 <0>        -0.3796
      3 O3          4.3184   -4.8192   -0.1230 O.2       1 <0>        -0.2686
      4 N1         -6.3941    0.0959    0.0441 N.3       1 <0>        -0.2969
      5 N2         -2.4156   -1.3332   -0.1345 N.pl3     1 <0>        -0.3270
      6 N3         -9.2078    0.7066    0.3050 N.3       1 <0>        -0.3029
      7 N4          5.4107    1.3597    0.4707 N.pl3     1 <0>        -0.3246
      8 N5          3.0210   -2.6316   -0.4798 N.pl3     1 <0>        -0.2975
      9 N6          4.1955   -0.6249   -0.0099 N.ar      1 <0>        -0.2133
     10 N7          6.4402   -2.1427    0.7140 N.ar      1 <0>        -0.2402
     11 N8          6.4807   -4.8175    0.6405 N.am      1 <0>        -0.3240
     12 C1         -5.2439   -0.8022    0.1277 C.3       1 <0>         0.0133
     13 C2         -4.5784   -0.9311   -1.2437 C.3       1 <0>        -0.0215
     14 C3         -4.2329   -0.2658    1.1436 C.3       1 <0>        -0.0215
     15 C4         -3.3304   -1.8127   -1.1765 C.3       1 <0>         0.0137
     16 C5         -2.9898   -1.1532    1.2063 C.3       1 <0>         0.0137
     17 C6         -7.3755   -0.4029   -0.9269 C.3       1 <0>         0.0120
     18 C7         -7.0180    0.2682    1.3617 C.3       1 <0>         0.0120
     19 C8         -8.2260    1.2073    1.2747 C.3       1 <0>         0.0114
     20 C9         -8.5842    0.5353   -1.0130 C.3       1 <0>         0.0114
     21 C10        -1.0539   -1.6482   -0.2159 C.ar      1 <0>         0.0721
     22 C11       -10.3591    1.6031    0.2219 C.3       1 <0>        -0.0127
     23 C12        -0.0923   -0.7828    0.3056 C.ar      1 <0>         0.1428
     24 C13        -0.6623   -2.8405   -0.8251 C.ar      1 <0>        -0.0353
     25 C14         1.2610   -1.1095    0.2179 C.ar      1 <0>         0.0031
     26 C15         0.6910   -3.1670   -0.9132 C.ar      1 <0>        -0.0385
     27 C16         1.6527   -2.3015   -0.3916 C.ar      1 <0>         0.0360
     28 C17         4.2977    2.2177    0.1149 C.3       1 <0>         0.0262
     29 C18         4.1992    2.3369   -1.4068 C.3       1 <0>        -0.0109
     30 C19         4.4629    3.5946    0.7614 C.3       1 <0>        -0.0109
     31 C20         5.2812    3.2484   -1.9768 C.3       1 <0>         0.0493
     32 C21         5.5206    4.4381    0.0554 C.3       1 <0>         0.0493
     33 C22         5.3424   -0.0502    0.4037 C.ar      1 <0>         0.1426
     34 C23         4.1908   -1.9720   -0.0550 C.ar      1 <0>         0.1558
     35 C24        -0.5559    1.5379    0.0715 C.3       1 <0>         0.0789
     36 C25         6.4449   -0.7956    0.7593 C.ar      1 <0>         0.0816
     37 C26         5.2932   -2.7175    0.3006 C.ar      1 <0>         0.1654
     38 C27         7.7133   -0.1570    1.2146 C.3       1 <0>        -0.0099
     39 C28         5.3091   -4.1715    0.2576 C.2       1 <0>         0.2633
     40 C29         8.5223    0.4193    0.0554 C.3       1 <0>        -0.0597
     41 H1         -5.5687   -1.8010    0.4539 H         1 <0>         0.0463
     42 H2         -4.6324   -0.2483    2.1621 H         1 <0>         0.0295
     43 H3         -3.9342    0.7584    0.8835 H         1 <0>         0.0295
     44 H4         -4.2994    0.0606   -1.6248 H         1 <0>         0.0295
     45 H5         -5.2325   -1.3981   -1.9860 H         1 <0>         0.0295
     46 H6         -2.8485   -1.7855   -2.1619 H         1 <0>         0.0464
     47 H7         -3.6224   -2.8499   -0.9694 H         1 <0>         0.0464
     48 H8         -3.2603   -2.1389    1.6076 H         1 <0>         0.0464
     49 H9         -2.2892   -0.7147    1.9234 H         1 <0>         0.0464
     50 H10        -6.3429    0.7515    2.0734 H         1 <0>         0.0439
     51 H11        -6.9686   -0.4301   -1.9414 H         1 <0>         0.0439
     52 H12        -7.7091   -1.4171   -0.6695 H         1 <0>         0.0439
     53 H13        -7.3252   -0.6969    1.7864 H         1 <0>         0.0439
     54 H14        -9.3099    0.1009   -1.7115 H         1 <0>         0.0439
     55 H15        -8.2721    1.5040   -1.4268 H         1 <0>         0.0439
     56 H16        -7.8907    2.2183    1.0054 H         1 <0>         0.0439
     57 H17        -8.6869    1.2705    2.2682 H         1 <0>         0.0439
     58 H18       -10.0798    2.6073   -0.1168 H         1 <0>         0.0391
     59 H19       -11.1090    1.2023   -0.4692 H         1 <0>         0.0391
     60 H20       -10.8480    1.6922    1.1984 H         1 <0>         0.0391
     61 H21        -1.3824   -3.5472   -1.2273 H         1 <0>         0.0638
     62 H22         1.9662   -0.4193    0.6645 H         1 <0>         0.0673
     63 H23         0.9824   -4.1011   -1.3868 H         1 <0>         0.0637
     64 H24         3.3698    1.7830    0.5074 H         1 <0>         0.0499
     65 H25         3.5021    4.1202    0.6866 H         1 <0>         0.0305
     66 H26         4.7046    3.5047    1.8266 H         1 <0>         0.0305
     67 H27         4.2381    1.3608   -1.9018 H         1 <0>         0.0305
     68 H28         3.2225    2.7786   -1.6445 H         1 <0>         0.0305
     69 H29         6.2792    2.8083   -1.8680 H         1 <0>         0.0560
     70 H30         5.1069    3.4046   -3.0461 H         1 <0>         0.0560
     71 H31         5.5109    5.4554    0.4600 H         1 <0>         0.0560
     72 H32         6.5291    4.0370    0.2081 H         1 <0>         0.0560
     73 H33         6.3164    1.7938    0.5870 H         1 <0>         0.1478
     74 H34         3.1946   -3.4918   -0.9908 H         1 <0>         0.1536
     75 H35        -0.8752    2.3812    0.6900 H         1 <0>         0.0660
     76 H36        -1.2994    1.3818   -0.7165 H         1 <0>         0.0660
     77 H37         0.4166    1.7767   -0.3709 H         1 <0>         0.0660
     78 H38         7.5127    0.6154    1.9663 H         1 <0>         0.0327
     79 H39         8.3307   -0.9069    1.7258 H         1 <0>         0.0327
     80 H40         8.7932   -0.3691   -0.6560 H         1 <0>         0.0233
     81 H41         9.4495    0.8630    0.4322 H         1 <0>         0.0233
     82 H42         7.9854    1.1913   -0.5020 H         1 <0>         0.0233
     83 H43         6.5479   -5.8297    0.6235 H         1 <0>         0.1453
     84 H44         7.3026   -4.3068    0.9472 H         1 <0>         0.1453
@<TRIPOS>BOND
     1    1   23 1
     2    1   35 1
     3    2   31 1
     4    2   32 1
     5    3   39 2
     6    4   12 1
     7    4   17 1
     8    4   18 1
     9    5   15 1
    10    5   16 1
    11    5   21 1
    12    6   19 1
    13    6   20 1
    14    6   22 1
    15    7   28 1
    16    7   33 1
    17    7   73 1
    18    8   27 1
    19    8   34 1
    20    8   74 1
    21    9   33 ar
    22    9   34 ar
    23   10   36 ar
    24   10   37 ar
    25   11   39 am
    26   11   83 1
    27   11   84 1
    28   12   13 1
    29   12   14 1
    30   12   41 1
    31   13   15 1
    32   13   44 1
    33   13   45 1
    34   14   16 1
    35   14   42 1
    36   14   43 1
    37   15   46 1
    38   15   47 1
    39   16   48 1
    40   16   49 1
    41   17   20 1
    42   17   51 1
    43   17   52 1
    44   18   19 1
    45   18   50 1
    46   18   53 1
    47   19   56 1
    48   19   57 1
    49   20   54 1
    50   20   55 1
    51   21   23 ar
    52   21   24 ar
    53   22   58 1
    54   22   59 1
    55   22   60 1
    56   23   25 ar
    57   24   26 ar
    58   24   61 1
    59   25   27 ar
    60   25   62 1
    61   26   27 ar
    62   26   63 1
    63   28   29 1
    64   28   30 1
    65   28   64 1
    66   29   31 1
    67   29   67 1
    68   29   68 1
    69   30   32 1
    70   30   65 1
    71   30   66 1
    72   31   69 1
    73   31   70 1
    74   32   71 1
    75   32   72 1
    76   33   36 ar
    77   34   37 ar
    78   35   75 1
    79   35   76 1
    80   35   77 1
    81   36   38 1
    82   37   39 1
    83   38   40 1
    84   38   78 1
    85   38   79 1
    86   40   80 1
    87   40   81 1
    88   40   82 1
