@<TRIPOS>MOLECULE
DB12010
   66    69     0     0     0
SMALL
USER_CHARGES

@<TRIPOS>ATOM
      1 P1          1.1336   -0.6107   -3.3149 P.3       1 <0>         0.4739
      2 F1          0.2922    6.3051   -0.5558 F         1 <0>        -0.2003
      3 O1         -4.6629   -0.0367   -0.5494 O.3       1 <0>        -0.4736
      4 O2         -2.5272   -2.7449   -1.5451 O.2       1 <0>        -0.2708
      5 O3         -0.3492   -0.4923   -2.6783 O.3       1 <0>        -0.2670
      6 O4          1.6058   -2.0949   -2.8803 O.3       1 <0>        -0.3026
      7 O5          2.0332    0.3487   -2.3728 O.3       1 <0>        -0.3026
      8 O6          1.2318   -0.3188   -4.7837 O.2       1 <0>        -0.2275
      9 O7          0.2899   -1.1590    2.7818 O.3       1 <0>        -0.4913
     10 O8          4.1678   -2.8440    0.5326 O.3       1 <0>        -0.4913
     11 O9          1.8870   -3.2959    2.0374 O.3       1 <0>        -0.4885
     12 N1         -1.9174   -0.5893   -0.9471 N.am      1 <0>        -0.2251
     13 N2         -1.4409    1.6916   -0.3677 N.ar      1 <0>        -0.2130
     14 N3         -0.9627    3.9621    0.1721 N.pl3     1 <0>        -0.2819
     15 N4          1.1442    2.8937    0.3525 N.ar      1 <0>        -0.1962
     16 N5          3.2519    1.8755    0.5164 N.pl3     1 <0>        -0.2833
     17 N6          3.1575    4.1346   -0.1101 N.ar      1 <0>        -0.2197
     18 C1         -4.1976   -1.3769   -0.4553 C.3       1 <0>         0.1807
     19 C2         -2.8141   -1.6452   -1.0693 C.2       1 <0>         0.2660
     20 C3         -2.3517    0.6982   -0.5350 C.ar      1 <0>         0.1736
     21 C4         -5.2443   -2.2304   -1.1849 C.3       1 <0>        -0.0164
     22 C5         -4.1671   -1.7904    1.0251 C.3       1 <0>        -0.0164
     23 C6         -3.7114    0.9188   -0.3638 C.ar      1 <0>         0.1623
     24 C7         -0.5116   -0.7551   -1.2966 C.3       1 <0>         0.1330
     25 C8         -4.1544    2.1967   -0.0270 C.ar      1 <0>        -0.0132
     26 C9         -1.8984    2.9168   -0.0245 C.ar      1 <0>         0.1264
     27 C10        -3.2344    3.2194    0.1538 C.ar      1 <0>        -0.0179
     28 C11         0.4376    4.0103    0.0795 C.ar      1 <0>         0.1647
     29 C12         1.0113    5.2099   -0.2896 C.ar      1 <0>         0.1813
     30 C13         2.4798    3.0248    0.2397 C.ar      1 <0>         0.2213
     31 C14         2.9070    0.5668    0.9026 C.ar      1 <0>         0.0407
     32 C15         3.7138   -0.5070    0.5259 C.ar      1 <0>         0.0052
     33 C16         1.7578    0.3433    1.6606 C.ar      1 <0>         0.0052
     34 C17         1.4154   -0.9540    2.0423 C.ar      1 <0>         0.1669
     35 C18         3.3715   -1.8042    0.9075 C.ar      1 <0>         0.1669
     36 C19         2.2223   -2.0277    1.6657 C.ar      1 <0>         0.2036
     37 C20         2.3892    5.2131   -0.3688 C.ar      1 <0>         0.0698
     38 C21        -0.4791   -0.0076    3.1245 C.3       1 <0>         0.0790
     39 C22         5.3235   -2.5291   -0.2414 C.3       1 <0>         0.0790
     40 C23         1.0516   -4.0316    1.1466 C.3       1 <0>         0.0791
     41 H1         -6.2492   -2.0430   -0.7889 H         1 <0>         0.0273
     42 H2         -5.2746   -1.9730   -2.2503 H         1 <0>         0.0273
     43 H3         -5.0356   -3.3024   -1.1024 H         1 <0>         0.0273
     44 H4         -5.1409   -1.6216    1.4986 H         1 <0>         0.0273
     45 H5         -3.8979   -2.8458    1.1421 H         1 <0>         0.0273
     46 H6         -3.4373   -1.2008    1.5916 H         1 <0>         0.0273
     47 H7         -0.2239   -1.7920   -1.0954 H         1 <0>         0.0781
     48 H8          0.1272   -0.1027   -0.6985 H         1 <0>         0.0781
     49 H9         -5.2147    2.3974    0.0999 H         1 <0>         0.0656
     50 H10        -3.5722    4.2140    0.4250 H         1 <0>         0.0653
     51 H11        -1.3862    4.8578    0.3993 H         1 <0>         0.1551
     52 H12         4.2324    2.0020    0.2838 H         1 <0>         0.1550
     53 H13         4.5927   -0.2723   -0.0658 H         1 <0>         0.0674
     54 H14         1.1832    1.1992    1.9862 H         1 <0>         0.0674
     55 H15         2.4597   -2.4396   -3.2182 H         1 <0>         0.2220
     56 H16         2.9747    0.4954   -2.6052 H         1 <0>         0.2220
     57 H17         2.9293    6.1104   -0.6512 H         1 <0>         0.0861
     58 H18        -1.3453   -0.3588    3.6950 H         1 <0>         0.0660
     59 H19        -0.8717    0.4980    2.2372 H         1 <0>         0.0660
     60 H20         0.0782    0.6693    3.7809 H         1 <0>         0.0660
     61 H21         5.8386   -3.4728   -0.4489 H         1 <0>         0.0660
     62 H22         6.0255   -1.9010    0.3175 H         1 <0>         0.0660
     63 H23         5.0539   -2.0955   -1.2105 H         1 <0>         0.0660
     64 H24         0.8956   -5.0286    1.5675 H         1 <0>         0.0660
     65 H25         1.5282   -4.1361    0.1666 H         1 <0>         0.0660
     66 H26         0.0788   -3.5412    1.0392 H         1 <0>         0.0660
@<TRIPOS>BOND
     1    1    5 1
     2    1    6 1
     3    1    7 1
     4    1    8 2
     5    2   29 1
     6    3   18 1
     7    3   23 1
     8    4   19 2
     9    5   24 1
    10    6   55 1
    11    7   56 1
    12    9   34 1
    13    9   38 1
    14   10   35 1
    15   10   39 1
    16   11   36 1
    17   11   40 1
    18   12   19 am
    19   12   20 1
    20   12   24 1
    21   13   20 ar
    22   13   26 ar
    23   14   26 1
    24   14   28 1
    25   14   51 1
    26   15   28 ar
    27   15   30 ar
    28   16   30 1
    29   16   31 1
    30   16   52 1
    31   17   30 ar
    32   17   37 ar
    33   18   19 1
    34   18   21 1
    35   18   22 1
    36   20   23 ar
    37   21   41 1
    38   21   42 1
    39   21   43 1
    40   22   44 1
    41   22   45 1
    42   22   46 1
    43   23   25 ar
    44   24   47 1
    45   24   48 1
    46   25   27 ar
    47   25   49 1
    48   26   27 ar
    49   27   50 1
    50   28   29 ar
    51   29   37 ar
    52   31   32 ar
    53   31   33 ar
    54   32   35 ar
    55   32   53 1
    56   33   34 ar
    57   33   54 1
    58   34   36 ar
    59   35   36 ar
    60   37   57 1
    61   38   58 1
    62   38   59 1
    63   38   60 1
    64   39   61 1
    65   39   62 1
    66   39   63 1
    67   40   64 1
    68   40   65 1
    69   40   66 1
