@<TRIPOS>MOLECULE
DB12070
   69    73     0     0     0
SMALL
USER_CHARGES

@<TRIPOS>ATOM
      1 F1         -4.7290   -3.8945   -0.6250 F         1 <0>        -0.2017
      2 F2          2.0064    4.4644    1.5108 F         1 <0>        -0.1659
      3 F3          1.8064    3.8423   -0.5631 F         1 <0>        -0.1659
      4 F4          0.1929    4.9231    0.4024 F         1 <0>        -0.1659
      5 O1         -1.0972   -0.9397    2.3737 O.3       1 <0>        -0.4918
      6 O2         -3.8755    3.6518   -1.3752 O.3       1 <0>        -0.4805
      7 O3         -5.5545    2.2618   -2.0308 O.2       1 <0>        -0.2509
      8 O4          6.3948    1.0782   -0.2849 O.3       1 <0>        -0.4951
      9 N1         -0.4361   -1.5297   -1.0051 N.pl3     1 <0>        -0.2211
     10 N2         -1.8900    0.1063   -0.1203 N.pl3     1 <0>        -0.1810
     11 N3          2.3640   -1.4716   -0.8784 N.pl3     1 <0>        -0.3241
     12 N4         -2.6964   -2.0427   -0.8256 N.2       1 <0>        -0.0730
     13 C1          0.2969   -0.8127   -2.0420 C.3       1 <0>         0.0762
     14 C2          0.2626   -2.6829   -0.4491 C.3       1 <0>         0.0762
     15 C3         -3.2120    0.7507   -0.2896 C.3       1 <0>         0.1155
     16 C4         -1.7174   -1.1887   -0.6331 C.2       1 <0>         0.3803
     17 C5          1.6466   -0.3479   -1.4953 C.3       1 <0>         0.0413
     18 C6          1.6095   -2.2427    0.1224 C.3       1 <0>         0.0413
     19 C7         -4.2968   -0.3013   -0.1546 C.ar      1 <0>         0.0330
     20 C8         -3.3008    1.4042   -1.6737 C.3       1 <0>         0.0813
     21 C9         -0.9468    0.7767    0.7043 C.ar      1 <0>         0.1370
     22 C10        -3.9918   -1.6441   -0.4426 C.ar      1 <0>         0.1829
     23 C11         3.7554   -1.4138   -0.7417 C.ar      1 <0>         0.0333
     24 C12        -5.5998    0.0543    0.2187 C.ar      1 <0>        -0.0519
     25 C13        -0.5709    0.2384    1.9351 C.ar      1 <0>         0.1565
     26 C14        -5.0000   -2.6100   -0.3521 C.ar      1 <0>         0.1655
     27 C15        -0.3960    1.9837    0.2737 C.ar      1 <0>        -0.0098
     28 C16        -4.3854    2.4431   -1.7254 C.2       1 <0>         0.3082
     29 C17         4.3891   -0.1818   -0.5788 C.ar      1 <0>         0.0011
     30 C18         4.5087   -2.5874   -0.7691 C.ar      1 <0>        -0.0404
     31 C19        -6.5935   -0.9189    0.3101 C.ar      1 <0>        -0.0585
     32 C20        -6.2941   -2.2493    0.0245 C.ar      1 <0>        -0.0229
     33 C21         0.5308    2.6522    1.0736 C.ar      1 <0>         0.0581
     34 C22         0.3557    0.9070    2.7351 C.ar      1 <0>        -0.0162
     35 C23         0.9065    2.1139    2.3045 C.ar      1 <0>        -0.0465
     36 C24         5.7761   -0.1237   -0.4433 C.ar      1 <0>         0.1218
     37 C25         5.8956   -2.5292   -0.6337 C.ar      1 <0>        -0.0566
     38 C26         6.5294   -1.2973   -0.4709 C.ar      1 <0>        -0.0198
     39 C27         1.1202    3.9427    0.6136 C.3       1 <0>         0.4175
     40 C28        -0.6544   -1.4135    3.6439 C.3       1 <0>         0.0789
     41 C29         5.5642    2.2383   -0.2656 C.3       1 <0>         0.0788
     42 H1          0.4106   -3.4292   -1.2389 H         1 <0>         0.0650
     43 H2         -0.3295   -3.1584    0.3415 H         1 <0>         0.0650
     44 H3         -0.2699    0.0489   -2.4132 H         1 <0>         0.0650
     45 H4          0.4495   -1.4839   -2.8963 H         1 <0>         0.0650
     46 H5         -3.3626    1.4962    0.5037 H         1 <0>         0.0733
     47 H6          1.4663   -1.6222    1.0136 H         1 <0>         0.0493
     48 H7          2.1520   -3.1396    0.4422 H         1 <0>         0.0493
     49 H8          2.2205    0.0651   -2.3343 H         1 <0>         0.0493
     50 H9          1.5175    0.4460   -0.7585 H         1 <0>         0.0493
     51 H10        -3.5000    0.6706   -2.4660 H         1 <0>         0.0414
     52 H11        -2.3612    1.8844   -1.9669 H         1 <0>         0.0414
     53 H12        -5.8468    1.0860    0.4534 H         1 <0>         0.0622
     54 H13        -0.6676    2.4105   -0.6867 H         1 <0>         0.0657
     55 H14         3.7742    0.7093   -0.5403 H         1 <0>         0.0673
     56 H15         4.0350   -3.5557   -0.9094 H         1 <0>         0.0636
     57 H16        -7.6011   -0.6400    0.6043 H         1 <0>         0.0619
     58 H17        -7.0690   -3.0070    0.0945 H         1 <0>         0.0647
     59 H18         0.6961    0.5504    3.7009 H         1 <0>         0.0655
     60 H19         1.6273    2.6193    2.9413 H         1 <0>         0.0624
     61 H20         6.4827   -3.4427   -0.6583 H         1 <0>         0.0619
     62 H21         7.6103   -1.2583   -0.3668 H         1 <0>         0.0654
     63 H22        -4.5577    4.3563   -1.3964 H         1 <0>         0.2951
     64 H23         0.4179   -1.6372    3.6401 H         1 <0>         0.0660
     65 H24        -0.9370   -0.7298    4.4516 H         1 <0>         0.0660
     66 H25        -1.1739   -2.3588    3.8326 H         1 <0>         0.0660
     67 H26         5.0410    2.3764   -1.2180 H         1 <0>         0.0660
     68 H27         4.8790    2.2298    0.5891 H         1 <0>         0.0660
     69 H28         6.2225    3.1038   -0.1363 H         1 <0>         0.0660
@<TRIPOS>BOND
     1    1   26 1
     2    2   39 1
     3    3   39 1
     4    4   39 1
     5    5   25 1
     6    5   40 1
     7    6   28 1
     8    6   63 1
     9    7   28 2
    10    8   36 1
    11    8   41 1
    12    9   13 1
    13    9   14 1
    14    9   16 1
    15   10   15 1
    16   10   16 1
    17   10   21 1
    18   11   17 1
    19   11   18 1
    20   11   23 1
    21   12   16 2
    22   12   22 1
    23   13   17 1
    24   13   44 1
    25   13   45 1
    26   14   18 1
    27   14   42 1
    28   14   43 1
    29   15   19 1
    30   15   20 1
    31   15   46 1
    32   17   49 1
    33   17   50 1
    34   18   47 1
    35   18   48 1
    36   19   22 ar
    37   19   24 ar
    38   20   28 1
    39   20   51 1
    40   20   52 1
    41   21   25 ar
    42   21   27 ar
    43   22   26 ar
    44   23   29 ar
    45   23   30 ar
    46   24   31 ar
    47   24   53 1
    48   25   34 ar
    49   26   32 ar
    50   27   33 ar
    51   27   54 1
    52   29   36 ar
    53   29   55 1
    54   30   37 ar
    55   30   56 1
    56   31   32 ar
    57   31   57 1
    58   32   58 1
    59   33   35 ar
    60   33   39 1
    61   34   35 ar
    62   34   59 1
    63   35   60 1
    64   36   38 ar
    65   37   38 ar
    66   37   61 1
    67   38   62 1
    68   40   64 1
    69   40   65 1
    70   40   66 1
    71   41   67 1
    72   41   68 1
    73   41   69 1
