@<TRIPOS>MOLECULE
DB12808
   67    70     0     0     0
SMALL
USER_CHARGES

@<TRIPOS>ATOM
      1 O1         -0.4995    3.2903    0.6872 O.3       1 <0>        -0.4891
      2 O2          1.6148    5.1261    0.7231 O.3       1 <0>        -0.3917
      3 O3         -7.9644   -3.8844   -0.6857 O.3       1 <0>        -0.4771
      4 O4         -9.4078   -2.4532    0.3316 O.2       1 <0>        -0.2451
      5 N1          3.7512   -1.1788    1.0619 N.pl3     1 <0>        -0.3297
      6 C1          4.9780   -0.3964    1.1918 C.3       1 <0>         0.0122
      7 C2          4.0221   -2.6142    1.0856 C.3       1 <0>         0.0122
      8 C3          6.0257   -1.4275    1.6051 C.3       1 <0>        -0.0358
      9 C4          5.5393   -2.7011    0.9359 C.3       1 <0>        -0.0358
     10 C5          2.7486   -0.6184   -1.5715 C.3       1 <0>        -0.0109
     11 C6          2.4934   -0.6305    0.9315 C.ar      1 <0>         0.0334
     12 C7          1.9448   -0.3347   -0.2918 C.ar      1 <0>        -0.0204
     13 C8          0.6926    0.2121   -0.4409 C.ar      1 <0>        -0.0485
     14 C9          1.7447   -0.3634    2.0778 C.ar      1 <0>        -0.0398
     15 C10         2.4436   -2.0473   -2.0709 C.3       1 <0>        -0.0560
     16 C11         4.2794   -0.5180   -1.3834 C.3       1 <0>        -0.0560
     17 C12         2.3566    0.3968   -2.6669 C.3       1 <0>        -0.0560
     18 C13        -0.0561    0.4792    0.7054 C.ar      1 <0>        -0.0140
     19 C14         0.4698    0.1914    1.9647 C.ar      1 <0>        -0.0522
     20 C15        -1.3781    1.0549    0.5884 C.ar      1 <0>         0.0244
     21 C16        -1.5598    2.4393    0.5822 C.ar      1 <0>         0.1283
     22 C17        -2.4835    0.2090    0.4790 C.ar      1 <0>        -0.0428
     23 C18        -3.7658    0.7456    0.3643 C.ar      1 <0>        -0.0171
     24 C19        -2.8423    2.9756    0.4674 C.ar      1 <0>        -0.0188
     25 C20        -3.9455    2.1288    0.3584 C.ar      1 <0>        -0.0505
     26 C21        -4.9108   -0.1321    0.2529 C.ar      1 <0>        -0.0178
     27 C22        -0.2902    4.1988   -0.3913 C.3       1 <0>         0.1126
     28 C23        -6.1501    0.2717    0.7491 C.ar      1 <0>        -0.0533
     29 C24        -4.7747   -1.3825   -0.3504 C.ar      1 <0>        -0.0533
     30 C25         1.1892    4.5171   -0.4899 C.3       1 <0>         0.0783
     31 C26        -7.2537   -0.5748    0.6422 C.ar      1 <0>        -0.0472
     32 C27        -5.8785   -2.2289   -0.4574 C.ar      1 <0>        -0.0472
     33 C28        -7.1178   -1.8251    0.0388 C.ar      1 <0>         0.0589
     34 C29        -8.2682   -2.7077   -0.0721 C.2       1 <0>         0.3368
     35 H1          5.3917    0.2251    0.4099 H         1 <0>         0.0464
     36 H2          4.8527    0.3017    2.0311 H         1 <0>         0.0464
     37 H3          3.5135   -3.2003    0.3256 H         1 <0>         0.0464
     38 H4          3.7214   -3.0143    2.0617 H         1 <0>         0.0464
     39 H5          7.0365   -1.1483    1.2944 H         1 <0>         0.0281
     40 H6          6.0272   -1.5517    2.6950 H         1 <0>         0.0281
     41 H7          5.9351   -3.5930    1.4330 H         1 <0>         0.0281
     42 H8          5.8618   -2.7600   -0.1073 H         1 <0>         0.0281
     43 H9          0.2359    0.4214   -1.4006 H         1 <0>         0.0627
     44 H10         2.1434   -0.5831    3.0651 H         1 <0>         0.0636
     45 H11         1.3834   -2.1439   -2.3370 H         1 <0>         0.0238
     46 H12         3.0218   -2.2784   -2.9733 H         1 <0>         0.0238
     47 H13         2.6448   -2.8279   -1.3441 H         1 <0>         0.0238
     48 H14         4.7809   -1.3719   -0.9733 H         1 <0>         0.0238
     49 H15         4.5451    0.4990   -1.0944 H         1 <0>         0.0238
     50 H16         4.7191   -0.5541   -2.3962 H         1 <0>         0.0238
     51 H17         2.4148    1.4315   -2.3083 H         1 <0>         0.0238
     52 H18         1.3578    0.2203   -3.0808 H         1 <0>         0.0238
     53 H19         3.0322    0.3212   -3.5285 H         1 <0>         0.0238
     54 H20        -0.1002    0.3937    2.8683 H         1 <0>         0.0624
     55 H21        -2.3171   -0.8654    0.5180 H         1 <0>         0.0631
     56 H22        -2.9991    4.0509    0.4641 H         1 <0>         0.0654
     57 H23        -4.9213    2.5923    0.2424 H         1 <0>         0.0625
     58 H24        -0.8597    5.1120   -0.1857 H         1 <0>         0.0720
     59 H25        -0.6303    3.7672   -1.3407 H         1 <0>         0.0720
     60 H26        -6.2971    1.2224    1.2541 H         1 <0>         0.0624
     61 H27        -3.8378   -1.7266   -0.7797 H         1 <0>         0.0624
     62 H28         1.7761    3.6029   -0.6202 H         1 <0>         0.0591
     63 H29         1.3982    5.1974   -1.3205 H         1 <0>         0.0591
     64 H30        -8.2094   -0.2449    1.0411 H         1 <0>         0.0626
     65 H31        -5.7302   -3.1907   -0.9403 H         1 <0>         0.0626
     66 H32         1.1087    5.9495    0.8311 H         1 <0>         0.2095
     67 H33        -8.7468   -4.4719   -0.7560 H         1 <0>         0.2954
@<TRIPOS>BOND
     1    1   21 1
     2    1   27 1
     3    2   30 1
     4    2   66 1
     5    3   34 1
     6    3   67 1
     7    4   34 2
     8    5    6 1
     9    5    7 1
    10    5   11 1
    11    6    8 1
    12    6   35 1
    13    6   36 1
    14    7    9 1
    15    7   37 1
    16    7   38 1
    17    8    9 1
    18    8   39 1
    19    8   40 1
    20    9   41 1
    21    9   42 1
    22   10   12 1
    23   10   15 1
    24   10   16 1
    25   10   17 1
    26   11   12 ar
    27   11   14 ar
    28   12   13 ar
    29   13   18 ar
    30   13   43 1
    31   14   19 ar
    32   14   44 1
    33   15   45 1
    34   15   46 1
    35   15   47 1
    36   16   48 1
    37   16   49 1
    38   16   50 1
    39   17   51 1
    40   17   52 1
    41   17   53 1
    42   18   19 ar
    43   18   20 1
    44   19   54 1
    45   20   21 ar
    46   20   22 ar
    47   21   24 ar
    48   22   23 ar
    49   22   55 1
    50   23   25 ar
    51   23   26 1
    52   24   25 ar
    53   24   56 1
    54   25   57 1
    55   26   28 ar
    56   26   29 ar
    57   27   30 1
    58   27   58 1
    59   27   59 1
    60   28   31 ar
    61   28   60 1
    62   29   32 ar
    63   29   61 1
    64   30   62 1
    65   30   63 1
    66   31   33 ar
    67   31   64 1
    68   32   33 ar
    69   32   65 1
    70   33   34 1
