@<TRIPOS>MOLECULE
DB12537
   19    20     0     0     0
SMALL
USER_CHARGES

@<TRIPOS>ATOM
      1 N1          0.8535   -1.6538    0.4166 N.pl3     1 <0>        -0.2372
      2 N2          1.9528   -1.6387   -0.3721 N.2       1 <0>        -0.1905
      3 C1         -0.0548    0.6365    0.1200 C.ar      1 <0>        -0.0024
      4 C2         -0.2206   -0.7563    0.2216 C.ar      1 <0>         0.0554
      5 C3         -1.1809    1.4523   -0.0922 C.ar      1 <0>        -0.0528
      6 C4         -1.5168   -1.2946    0.0971 C.ar      1 <0>        -0.0386
      7 C5          1.2325    1.3039    0.3447 C.2       1 <0>        -0.0513
      8 C6         -2.4543    0.8996   -0.2224 C.ar      1 <0>        -0.0611
      9 C7         -2.6231   -0.4754   -0.1254 C.ar      1 <0>        -0.0599
     10 C8          2.4391    0.7837    0.1074 C.2       1 <0>        -0.0415
     11 C9          2.6311   -0.5487   -0.4955 C.2       1 <0>         0.0456
     12 H1         -1.0767    2.5341   -0.1538 H         1 <0>         0.0624
     13 H2         -1.6703   -2.3699    0.1663 H         1 <0>         0.0637
     14 H3          1.1841    2.3180    0.7358 H         1 <0>         0.0624
     15 H4         -3.3121    1.5439   -0.3902 H         1 <0>         0.0618
     16 H5         -3.6126   -0.9120   -0.2218 H         1 <0>         0.0618
     17 H6          0.5631   -2.5825    0.7109 H         1 <0>         0.1744
     18 H7          3.3353    1.3683    0.2854 H         1 <0>         0.0633
     19 H8          3.5307   -0.6085   -1.1323 H         1 <0>         0.0845
@<TRIPOS>BOND
     1    1    2 1
     2    1    4 1
     3    1   17 1
     4    2   11 2
     5    3    4 ar
     6    3    5 ar
     7    3    7 1
     8    4    6 ar
     9    5    8 ar
    10    5   12 1
    11    6    9 ar
    12    6   13 1
    13    7   10 2
    14    7   14 1
    15    8    9 ar
    16    8   15 1
    17    9   16 1
    18   10   11 1
    19   10   18 1
    20   11   19 1
