@<TRIPOS>MOLECULE
DB12834
   24    24     0     0     0
SMALL
USER_CHARGES

@<TRIPOS>ATOM
      1 O1         -1.4462   -0.9269    1.2596 O.3       1 <0>        -0.3903
      2 O2          2.2361    3.3132    0.0932 O.3       1 <0>        -0.5747
      3 O3          0.1889    2.7689   -0.4988 O.2       1 <0>         0.0431
      4 N1          0.8244    0.0631   -0.2867 N.pl3     1 <0>        -0.2682
      5 N2          2.7218   -0.9103    0.2753 N.2       1 <0>        -0.2338
      6 N3          1.3590    2.4366   -0.1536 N.pl3     1 <0>         0.1004
      7 C1         -0.5723    0.2014   -0.6977 C.3       1 <0>         0.0561
      8 C2         -1.5344    0.2714    0.4918 C.3       1 <0>         0.0705
      9 C3          1.4742   -1.1118   -0.0864 C.cat     1 <0>         0.1116
     10 C4          1.6876    1.0811   -0.0442 C.2       1 <0>         0.3680
     11 C5         -2.9749    0.4018    0.0170 C.3       1 <0>        -0.0373
     12 C6          2.8613    0.4548    0.3042 C.2       1 <0>         0.1255
     13 C7          0.8239   -2.4259   -0.2660 C.3       1 <0>        -0.0061
     14 H1         -0.8091   -0.6927   -1.2866 H         1 <0>         0.0519
     15 H2         -0.6861    1.0130   -1.4176 H         1 <0>         0.0519
     16 H3         -1.2927    1.1130    1.1503 H         1 <0>         0.0608
     17 H4         -3.6579    0.4267    0.8730 H         1 <0>         0.0255
     18 H5         -3.1183    1.3142   -0.5698 H         1 <0>         0.0255
     19 H6         -3.2683   -0.4594   -0.5936 H         1 <0>         0.0255
     20 H7          3.8030    0.9112    0.5745 H         1 <0>         0.0917
     21 H8          0.1077   -2.6461    0.5269 H         1 <0>         0.0307
     22 H9          0.3316   -2.5151   -1.2383 H         1 <0>         0.0307
     23 H10         1.5829   -3.2159   -0.2294 H         1 <0>         0.0307
     24 H11        -0.6422   -0.8664    1.8029 H         1 <0>         0.2098
@<TRIPOS>BOND
     1    1    8 1
     2    1   24 1
     3    2    6 1
     4    3    6 2
     5    4    7 1
     6    4    9 1
     7    4   10 2
     8    5    9 1
     9    5   12 2
    10    6   10 1
    11    7    8 1
    12    7   14 1
    13    7   15 1
    14    8   11 1
    15    8   16 1
    16    9   13 1
    17   10   12 1
    18   11   17 1
    19   11   18 1
    20   11   19 1
    21   12   20 1
    22   13   21 1
    23   13   22 1
    24   13   23 1
