@<TRIPOS>MOLECULE
DB12404
   47    50     0     0     0
SMALL
USER_CHARGES

@<TRIPOS>ATOM
      1 Br1        -4.2570    2.1676   -3.5664 Br        1 <0>        -0.0503
      2 O1          5.4162   -0.2206   -0.8883 O.3       1 <0>        -0.4679
      3 O2          4.8717   -1.9641    0.5212 O.2       1 <0>        -0.2509
      4 N1         -1.6794   -1.7674    0.3306 N.pl3     1 <0>        -0.2983
      5 N2          0.5588    0.3096    0.2923 N.2       1 <0>        -0.2701
      6 N3         -0.0803   -2.8988    1.4085 N.2       1 <0>        -0.2378
      7 N4         -1.7956    2.8304    0.8196 N.ar      1 <0>        -0.2534
      8 C1          0.6890   -1.0727   -0.1414 C.3       1 <0>         0.1100
      9 C2         -0.3223   -1.9112    0.5685 C.cat     1 <0>         0.1390
     10 C3          2.1176   -1.5168    0.1669 C.3       1 <0>        -0.0134
     11 C4         -2.2852   -0.7991   -0.5084 C.ar      1 <0>         0.0573
     12 C5         -1.6878    0.4526   -0.7543 C.ar      1 <0>         0.0269
     13 C6         -2.2986   -2.7938    1.0069 C.2       1 <0>         0.0404
     14 C7         -0.5089    0.9761    0.0105 C.2       1 <0>         0.0936
     15 C8          3.1364   -0.6243   -0.5318 C.3       1 <0>         0.0473
     16 C9         -1.2987   -3.4499    1.6815 C.2       1 <0>         0.0491
     17 C10        -3.5026   -1.1196   -1.1320 C.ar      1 <0>        -0.0361
     18 C11        -2.2810    1.3225   -1.6860 C.ar      1 <0>        -0.0365
     19 C12        -3.7513   -3.0381    1.1214 C.3       1 <0>        -0.0224
     20 C13        -0.5638    2.3778    0.5217 C.ar      1 <0>         0.0894
     21 C14        -4.0892   -0.2330   -2.0358 C.ar      1 <0>        -0.0458
     22 C15        -3.4721    0.9789   -2.3240 C.ar      1 <0>         0.0186
     23 C16         4.5548   -1.0410   -0.2162 C.2       1 <0>         0.3069
     24 C17         0.6010    3.1027    0.6546 C.ar      1 <0>        -0.0342
     25 C18         0.4938    4.4033    1.1344 C.ar      1 <0>        -0.0583
     26 C19        -1.8603    4.0988    1.2830 C.ar      1 <0>         0.0283
     27 C20        -0.7568    4.9185    1.4569 C.ar      1 <0>        -0.0436
     28 C21         6.8073   -0.4928   -0.6898 C.3       1 <0>         0.0817
     29 H1          0.5418   -1.1538   -1.2271 H         1 <0>         0.0625
     30 H2          2.2629   -2.5597   -0.1445 H         1 <0>         0.0295
     31 H3          2.3002   -1.4903    1.2503 H         1 <0>         0.0295
     32 H4          3.0289    0.4174   -0.2114 H         1 <0>         0.0378
     33 H5          2.9964   -0.6815   -1.6172 H         1 <0>         0.0378
     34 H6         -1.3959   -4.2868    2.3581 H         1 <0>         0.0848
     35 H7         -3.9824   -2.0848   -1.0576 H         1 <0>         0.0639
     36 H8         -1.8165    2.2800   -1.9142 H         1 <0>         0.0636
     37 H9         -3.9620   -3.5975    2.0416 H         1 <0>         0.0292
     38 H10        -4.3326   -2.1148    1.1993 H         1 <0>         0.0292
     39 H11        -4.1194   -3.6592    0.2995 H         1 <0>         0.0292
     40 H12        -5.0130   -0.5201   -2.5319 H         1 <0>         0.0629
     41 H13         1.5754    2.7044    0.3945 H         1 <0>         0.0639
     42 H14         1.3827    5.0154    1.2547 H         1 <0>         0.0619
     43 H15        -2.8583    4.4532    1.5192 H         1 <0>         0.0830
     44 H16        -0.8644    5.9299    1.8317 H         1 <0>         0.0633
     45 H17         7.3819    0.2280   -1.2776 H         1 <0>         0.0661
     46 H18         7.0491   -1.5017   -1.0373 H         1 <0>         0.0661
     47 H19         7.0695   -0.3737    0.3658 H         1 <0>         0.0661
@<TRIPOS>BOND
     1    1   22 1
     2    2   23 1
     3    2   28 1
     4    3   23 2
     5    4    9 1
     6    4   11 1
     7    4   13 2
     8    5    8 1
     9    5   14 2
    10    6    9 1
    11    6   16 2
    12    7   20 ar
    13    7   26 ar
    14    8    9 1
    15    8   10 1
    16    8   29 1
    17   10   15 1
    18   10   30 1
    19   10   31 1
    20   11   12 ar
    21   11   17 ar
    22   12   14 1
    23   12   18 ar
    24   13   16 1
    25   13   19 1
    26   14   20 1
    27   15   23 1
    28   15   32 1
    29   15   33 1
    30   16   34 1
    31   17   21 ar
    32   17   35 1
    33   18   22 ar
    34   18   36 1
    35   19   37 1
    36   19   38 1
    37   19   39 1
    38   20   24 ar
    39   21   22 ar
    40   21   40 1
    41   24   25 ar
    42   24   41 1
    43   25   27 ar
    44   25   42 1
    45   26   27 ar
    46   26   43 1
    47   27   44 1
    48   28   45 1
    49   28   46 1
    50   28   47 1
