@<TRIPOS>MOLECULE
DB12457
   67    72     0     0     0
SMALL
USER_CHARGES

@<TRIPOS>ATOM
      1 F1         -3.9839    3.9139    0.8567 F         1 <0>        -0.2022
      2 F2         -6.5743    4.6734    0.4781 F         1 <0>        -0.2025
      3 O1         -0.7603   -1.4246   -0.6009 O.3       1 <0>        -0.4406
      4 O2          0.0264   -2.1219   -2.6305 O.2       1 <0>        -0.2262
      5 O3          3.7560    2.3325   -1.4036 O.2       1 <0>        -0.2465
      6 N1          1.5112   -1.6629   -0.9022 N.am      1 <0>        -0.2673
      7 N2          4.9731    0.6520   -0.2462 N.am      1 <0>        -0.2875
      8 N3         -1.4335    0.2011    1.8100 N.3       1 <0>        -0.3230
      9 N4         -3.5468   -3.1874   -0.1969 N.ar      1 <0>        -0.2559
     10 N5          5.9424    2.6680   -0.5689 N.am      1 <0>        -0.2908
     11 N6          8.0766    2.1916    0.5441 N.ar      1 <0>        -0.2359
     12 C1          4.0536   -0.4591   -0.2378 C.3       1 <0>         0.0423
     13 C2         -3.0165    1.3085    0.2411 C.3       1 <0>         0.0064
     14 C3          2.7729   -0.0955    0.5210 C.3       1 <0>        -0.0159
     15 C4          3.7270   -0.9091   -1.6662 C.3       1 <0>        -0.0159
     16 C5         -2.2536    1.0789   -1.0765 C.3       1 <0>        -0.0407
     17 C6         -2.8330    0.2457    1.3601 C.3       1 <0>         0.0391
     18 C7          2.7001   -2.0381   -1.6671 C.3       1 <0>         0.0197
     19 C8          1.7602   -1.2375    0.4792 C.3       1 <0>         0.0197
     20 C9         -2.5068   -0.2219   -1.8340 C.3       1 <0>        -0.0093
     21 C10        -2.0966   -1.5037   -1.1104 C.3       1 <0>         0.1466
     22 C11        -3.3684   -1.1447    1.0883 C.ar      1 <0>        -0.0052
     23 C12        -3.0373   -1.9360   -0.0180 C.ar      1 <0>         0.0863
     24 C13        -4.4681    1.7409    0.0323 C.ar      1 <0>        -0.0045
     25 C14         0.2396   -1.7657   -1.4730 C.2       1 <0>         0.4035
     26 C15         6.2486    0.6218    0.3245 C.ar      1 <0>         0.0889
     27 C16         4.7515    1.9302   -0.8177 C.2       1 <0>         0.3290
     28 C17        -4.2505   -1.7052    2.0308 C.ar      1 <0>        -0.0538
     29 C18         6.8477    1.8590    0.1284 C.ar      1 <0>         0.1586
     30 C19        -4.8668    3.0372    0.3582 C.ar      1 <0>         0.1619
     31 C20        -5.3946    0.8354   -0.4850 C.ar      1 <0>        -0.0553
     32 C21         6.9225   -0.3772    0.9905 C.ar      1 <0>        -0.0330
     33 C22        -4.7758   -2.9783    1.8572 C.ar      1 <0>        -0.0433
     34 C23        -4.3953   -3.6736    0.7320 C.ar      1 <0>         0.0280
     35 C24        -6.1919    3.4283    0.1669 C.ar      1 <0>         0.1587
     36 C25        -6.7198    1.2266   -0.6765 C.ar      1 <0>        -0.0586
     37 C26         8.2062   -0.0773    1.4424 C.ar      1 <0>        -0.0415
     38 C27        -7.1184    2.5229   -0.3504 C.ar      1 <0>        -0.0236
     39 C28         8.7291    1.1979    1.1990 C.ar      1 <0>         0.0300
     40 H1          4.5135   -1.3088    0.2789 H         1 <0>         0.0530
     41 H2         -2.5257    2.2075    0.6476 H         1 <0>         0.0368
     42 H3          3.3256   -0.0727   -2.2510 H         1 <0>         0.0300
     43 H4          4.6398   -1.2392   -2.1765 H         1 <0>         0.0300
     44 H5          3.0082    0.1509    1.5635 H         1 <0>         0.0300
     45 H6          2.3069    0.7969    0.0856 H         1 <0>         0.0300
     46 H7         -2.4729    1.9115   -1.7592 H         1 <0>         0.0273
     47 H8         -1.1770    1.1531   -0.8722 H         1 <0>         0.0273
     48 H9         -3.3895    0.6416    2.2225 H         1 <0>         0.0514
     49 H10         3.1185   -2.9377   -1.2003 H         1 <0>         0.0466
     50 H11         2.4332   -2.2970   -2.6966 H         1 <0>         0.0466
     51 H12         0.8402   -0.9325    0.9770 H         1 <0>         0.0466
     52 H13         2.1473   -2.1092    1.0200 H         1 <0>         0.0466
     53 H14        -3.5408   -0.2860   -2.1834 H         1 <0>         0.0305
     54 H15        -1.9018   -0.1538   -2.7489 H         1 <0>         0.0305
     55 H16        -2.1422   -2.3047   -1.8623 H         1 <0>         0.0801
     56 H17        -1.1193    1.1392    2.0552 H         1 <0>         0.1188
     57 H18        -1.3664   -0.3520    2.6639 H         1 <0>         0.1188
     58 H19        -4.5386   -1.1435    2.9168 H         1 <0>         0.0622
     59 H20        -5.1346   -0.1820   -0.7444 H         1 <0>         0.0621
     60 H21         6.1246    3.6250   -0.8438 H         1 <0>         0.1719
     61 H22         6.5001   -1.3578    1.1689 H         1 <0>         0.0640
     62 H23        -5.4581   -3.4070    2.5817 H         1 <0>         0.0633
     63 H24        -4.7706   -4.6728    0.5385 H         1 <0>         0.0829
     64 H25        -7.4420    0.5215   -1.0773 H         1 <0>         0.0619
     65 H26         8.7923   -0.8191    1.9746 H         1 <0>         0.0633
     66 H27        -8.1501    2.8276   -0.4992 H         1 <0>         0.0647
     67 H28         9.7269    1.4548    1.5415 H         1 <0>         0.0830
@<TRIPOS>BOND
     1    1   30 1
     2    2   35 1
     3    3   21 1
     4    3   25 1
     5    4   25 2
     6    5   27 2
     7    6   18 1
     8    6   19 1
     9    6   25 am
    10    7   12 1
    11    7   26 2
    12    7   27 am
    13    8   17 1
    14    8   56 1
    15    8   57 1
    16    9   23 ar
    17    9   34 ar
    18   10   27 am
    19   10   29 2
    20   10   60 1
    21   11   29 ar
    22   11   39 ar
    23   12   14 1
    24   12   15 1
    25   12   40 1
    26   13   16 1
    27   13   17 1
    28   13   24 1
    29   13   41 1
    30   14   19 1
    31   14   44 1
    32   14   45 1
    33   15   18 1
    34   15   42 1
    35   15   43 1
    36   16   20 1
    37   16   46 1
    38   16   47 1
    39   17   22 1
    40   17   48 1
    41   18   49 1
    42   18   50 1
    43   19   51 1
    44   19   52 1
    45   20   21 1
    46   20   53 1
    47   20   54 1
    48   21   23 1
    49   21   55 1
    50   22   23 ar
    51   22   28 ar
    52   24   30 ar
    53   24   31 ar
    54   26   29 ar
    55   26   32 ar
    56   28   33 ar
    57   28   58 1
    58   30   35 ar
    59   31   36 ar
    60   31   59 1
    61   32   37 ar
    62   32   61 1
    63   33   34 ar
    64   33   62 1
    65   34   63 1
    66   35   38 ar
    67   36   38 ar
    68   36   64 1
    69   37   39 ar
    70   37   65 1
    71   38   66 1
    72   39   67 1
