@<TRIPOS>MOLECULE
DB12401
   49    51     0     0     0
SMALL
USER_CHARGES

@<TRIPOS>ATOM
      1 Br1         9.2848    0.1560   -0.2159 Br        1 <0>        -0.0503
      2 F1         -8.8010   -1.6402   -0.2671 F         1 <0>        -0.2055
      3 O1          2.9140   -1.3631    1.3516 O.3       1 <0>        -0.3839
      4 O2         -3.2413    0.4484    1.7529 O.2       1 <0>        -0.2921
      5 N1          0.3949    0.2933   -0.6378 N.3       1 <0>        -0.3021
      6 C1          3.1243   -0.4036    0.3049 C.3       1 <0>         0.0933
      7 C2          2.3830    0.8936    0.6984 C.3       1 <0>        -0.0070
      8 C3          2.5164   -0.9382   -1.0125 C.3       1 <0>        -0.0070
      9 C4          0.8575    0.7430    0.6796 C.3       1 <0>         0.0018
     10 C5          0.9838   -1.0026   -0.9903 C.3       1 <0>         0.0018
     11 C6         -1.0656    0.2191   -0.6708 C.3       1 <0>        -0.0007
     12 C7          4.6424   -0.2662    0.1779 C.ar      1 <0>        -0.0160
     13 C8         -1.6719    1.5905   -0.3662 C.3       1 <0>        -0.0332
     14 C9          5.2515    0.9654    0.4128 C.ar      1 <0>        -0.0548
     15 C10         5.4144   -1.3726   -0.1736 C.ar      1 <0>        -0.0548
     16 C11        -3.2028    1.5660   -0.3858 C.3       1 <0>         0.0116
     17 C12         6.6358    1.0911    0.2957 C.ar      1 <0>        -0.0474
     18 C13         6.7987   -1.2470   -0.2906 C.ar      1 <0>        -0.0474
     19 C14        -3.8066    0.6674    0.6843 C.2       1 <0>         0.1632
     20 C15         7.4095   -0.0150   -0.0559 C.ar      1 <0>         0.0179
     21 C16        -5.1401    0.0513    0.4301 C.ar      1 <0>         0.0176
     22 C17        -6.0384    0.7249   -0.3669 C.ar      1 <0>        -0.0486
     23 C18        -5.4241   -1.1689    1.0019 C.ar      1 <0>        -0.0486
     24 C19        -7.2861    0.1483   -0.6045 C.ar      1 <0>        -0.0258
     25 C20        -6.6718   -1.7456    0.7642 C.ar      1 <0>        -0.0258
     26 C21        -7.6028   -1.0871   -0.0391 C.ar      1 <0>         0.1234
     27 H1          2.6409    1.7059    0.0055 H         1 <0>         0.0309
     28 H2          2.6767    1.2071    1.7087 H         1 <0>         0.0309
     29 H3          2.8779   -1.9513   -1.2268 H         1 <0>         0.0309
     30 H4          2.8318   -0.3005   -1.8499 H         1 <0>         0.0309
     31 H5          0.4922    1.7424    0.9276 H         1 <0>         0.0427
     32 H6          0.5254    0.0657    1.4762 H         1 <0>         0.0427
     33 H7          0.6474   -1.2991   -1.9917 H         1 <0>         0.0427
     34 H8          0.6514   -1.7880   -0.2995 H         1 <0>         0.0427
     35 H9         -1.3952   -0.0913   -1.6703 H         1 <0>         0.0427
     36 H10        -1.4293   -0.5342    0.0384 H         1 <0>         0.0427
     37 H11        -1.3193    2.3260   -1.0998 H         1 <0>         0.0282
     38 H12        -1.3984    1.9600    0.6254 H         1 <0>         0.0282
     39 H13         1.9668   -1.5649    1.4131 H         1 <0>         0.2106
     40 H14         4.6995    1.8541    0.6968 H         1 <0>         0.0622
     41 H15         4.9619   -2.3445   -0.3487 H         1 <0>         0.0622
     42 H16        -3.5293    1.2312   -1.3769 H         1 <0>         0.0345
     43 H17        -3.5822    2.5810   -0.2220 H         1 <0>         0.0345
     44 H18         7.0969    2.0575    0.4835 H         1 <0>         0.0629
     45 H19         7.3873   -2.1192   -0.5630 H         1 <0>         0.0629
     46 H20        -5.8234    1.6941   -0.8048 H         1 <0>         0.0625
     47 H21        -4.7068   -1.6948    1.6245 H         1 <0>         0.0625
     48 H22        -8.0128    0.6623   -1.2266 H         1 <0>         0.0646
     49 H23        -6.9183   -2.7079    1.2033 H         1 <0>         0.0646
@<TRIPOS>BOND
     1    1   20 1
     2    2   26 1
     3    3    6 1
     4    3   39 1
     5    4   19 2
     6    5    9 1
     7    5   10 1
     8    5   11 1
     9    6    7 1
    10    6    8 1
    11    6   12 1
    12    7    9 1
    13    7   27 1
    14    7   28 1
    15    8   10 1
    16    8   29 1
    17    8   30 1
    18    9   31 1
    19    9   32 1
    20   10   33 1
    21   10   34 1
    22   11   13 1
    23   11   35 1
    24   11   36 1
    25   12   14 ar
    26   12   15 ar
    27   13   16 1
    28   13   37 1
    29   13   38 1
    30   14   17 ar
    31   14   40 1
    32   15   18 ar
    33   15   41 1
    34   16   19 1
    35   16   42 1
    36   16   43 1
    37   17   20 ar
    38   17   44 1
    39   18   20 ar
    40   18   45 1
    41   19   21 1
    42   21   22 ar
    43   21   23 ar
    44   22   24 ar
    45   22   46 1
    46   23   25 ar
    47   23   47 1
    48   24   26 ar
    49   24   48 1
    50   25   26 ar
    51   25   49 1
