@<TRIPOS>MOLECULE
DB12130
   49    52     0     0     0
SMALL
USER_CHARGES

@<TRIPOS>ATOM
      1 F1         -4.4561   -0.5909    3.1394 F         1 <0>        -0.2055
      2 O1         -2.3591    1.6191   -1.0416 O.3       1 <0>        -0.4810
      3 O2         -1.2776   -2.6528   -1.8126 O.2       1 <0>        -0.2700
      4 N1          0.5947   -2.1906   -0.4793 N.am      1 <0>        -0.2947
      5 N2          4.3217   -0.0130    0.2278 N.pl3     1 <0>        -0.2562
      6 N3          3.5883   -1.1122    0.4600 N.2       1 <0>        -0.1730
      7 N4         -0.0107    3.6480    0.8345 N.ar      1 <0>        -0.2364
      8 N5         -2.2829    3.9846    0.2468 N.pl3     1 <0>        -0.3402
      9 N6          4.6079    3.4505   -0.4045 N.1       1 <0>        -0.1893
     10 C1          1.1989   -1.6098    0.7411 C.3       1 <0>         0.0592
     11 C2          2.3242   -0.6641    0.4460 C.2       1 <0>         0.0892
     12 C3          2.2737    0.7455    0.2136 C.2       1 <0>         0.0436
     13 C4         -2.5481    0.2083   -1.2966 C.3       1 <0>         0.1233
     14 C5         -2.5880   -0.6128   -0.0099 C.ar      1 <0>         0.0072
     15 C6         -1.7466   -1.7200    0.2348 C.ar      1 <0>         0.0437
     16 C7          1.1426    1.6418    0.1364 C.ar      1 <0>         0.0083
     17 C8         -0.7849   -2.2164   -0.7715 C.2       1 <0>         0.2471
     18 C9          3.5891    1.1269    0.0851 C.2       1 <0>         0.1457
     19 C10        -1.1586    1.9953   -0.5095 C.ar      1 <0>         0.1613
     20 C11         0.0144    1.2570   -0.5826 C.ar      1 <0>        -0.0072
     21 C12        -3.8672    0.0711   -2.0640 C.3       1 <0>        -0.0235
     22 C13        -3.4940   -0.2447    1.0029 C.ar      1 <0>        -0.0191
     23 C14        -1.8571   -2.4587    1.4229 C.ar      1 <0>        -0.0465
     24 C15         1.5012   -2.8497   -1.4173 C.3       1 <0>         0.0039
     25 C16         1.0841    2.8514    0.8127 C.ar      1 <0>         0.0378
     26 C17        -1.1090    3.1921    0.1865 C.ar      1 <0>         0.1583
     27 C18        -3.5812   -0.9648    2.1963 C.ar      1 <0>         0.1238
     28 C19        -2.7682   -2.0742    2.4030 C.ar      1 <0>        -0.0257
     29 C20         5.7604   -0.1370    0.1606 C.3       1 <0>         0.0316
     30 C21         4.1502    2.4069   -0.1846 C.1       1 <0>         0.1194
     31 H1          1.5555   -2.4508    1.3484 H         1 <0>         0.0530
     32 H2          0.4503   -1.0841    1.3382 H         1 <0>         0.0530
     33 H3         -1.7727   -0.1375   -1.9865 H         1 <0>         0.0782
     34 H4          0.0649    0.3562   -1.1808 H         1 <0>         0.0662
     35 H5         -4.7091    0.4979   -1.5077 H         1 <0>         0.0269
     36 H6         -4.0934   -0.9765   -2.2880 H         1 <0>         0.0269
     37 H7         -3.8116    0.6245   -3.0084 H         1 <0>         0.0269
     38 H8         -4.1469    0.6149    0.8688 H         1 <0>         0.0650
     39 H9         -1.2357   -3.3344    1.5939 H         1 <0>         0.0626
     40 H10         2.1023   -2.0918   -1.9272 H         1 <0>         0.0429
     41 H11         0.9552   -3.4215   -2.1723 H         1 <0>         0.0429
     42 H12         2.1509   -3.5349   -0.8651 H         1 <0>         0.0429
     43 H13         1.9116    3.2232    1.4084 H         1 <0>         0.0836
     44 H14        -2.8455   -2.6407    3.3262 H         1 <0>         0.0646
     45 H15         6.0869    0.1687   -0.8365 H         1 <0>         0.0473
     46 H16         6.0477   -1.1764    0.3413 H         1 <0>         0.0473
     47 H17         6.1997    0.5054    0.9278 H         1 <0>         0.0473
     48 H18        -2.9483    3.9135   -0.5132 H         1 <0>         0.1438
     49 H19        -2.2241    4.8574    0.7564 H         1 <0>         0.1438
@<TRIPOS>BOND
     1    1   27 1
     2    2   13 1
     3    2   19 1
     4    3   17 2
     5    4   10 1
     6    4   17 am
     7    4   24 1
     8    5    6 1
     9    5   18 2
    10    5   29 1
    11    6   11 1
    12    7   25 ar
    13    7   26 ar
    14    8   26 1
    15    8   48 1
    16    8   49 1
    17    9   30 3
    18   10   11 1
    19   10   31 1
    20   10   32 1
    21   11   12 2
    22   12   16 1
    23   12   18 1
    24   13   14 1
    25   13   21 1
    26   13   33 1
    27   14   15 ar
    28   14   22 ar
    29   15   17 1
    30   15   23 ar
    31   16   20 ar
    32   16   25 ar
    33   18   30 1
    34   19   20 ar
    35   19   26 ar
    36   20   34 1
    37   21   35 1
    38   21   36 1
    39   21   37 1
    40   22   27 ar
    41   22   38 1
    42   23   28 ar
    43   23   39 1
    44   24   40 1
    45   24   41 1
    46   24   42 1
    47   25   43 1
    48   27   28 ar
    49   28   44 1
    50   29   45 1
    51   29   46 1
    52   29   47 1
