@<TRIPOS>MOLECULE
DB12161
   50    52     0     0     0
SMALL
USER_CHARGES

@<TRIPOS>ATOM
      1 O1         -2.2015    3.0390   -0.3209 O.2       1 <0>        -0.2970
      2 O2          4.8841    2.0351   -0.6655 O.3       1 <0>        -0.4914
      3 O3          5.8189   -0.5066   -0.0493 O.3       1 <0>        -0.4914
      4 N1         -0.6133   -0.6941   -0.0794 N.3       1 <0>        -0.2940
      5 C1          0.2134    0.4327   -0.5864 C.3       1 <0>         0.0427
      6 C2         -2.6135    0.7249    0.2502 C.3       1 <0>         0.0305
      7 C3         -2.0277   -0.5110   -0.4406 C.3       1 <0>         0.0090
      8 C4         -0.2498    1.7232    0.1149 C.3       1 <0>         0.0259
      9 C5         -0.1161   -1.9758   -0.5887 C.3       1 <0>         0.0035
     10 C6          1.7142    0.1935   -0.4210 C.ar      1 <0>        -0.0230
     11 C7         -1.7401    1.9307   -0.0533 C.2       1 <0>         0.1394
     12 C8         -4.0587    0.9513   -0.1818 C.3       1 <0>        -0.0400
     13 C9          1.2556   -2.2565    0.0198 C.3       1 <0>        -0.0144
     14 C10         2.2035   -1.1009   -0.1571 C.ar      1 <0>        -0.0378
     15 C11        -4.9616   -0.2737    0.0351 C.3       1 <0>        -0.0460
     16 C12         2.6428    1.2308   -0.6115 C.ar      1 <0>        -0.0114
     17 C13         3.5826   -1.3198   -0.0187 C.ar      1 <0>        -0.0128
     18 C14        -6.3710    0.0254   -0.4811 C.3       1 <0>        -0.0626
     19 C15        -5.0281   -0.6975    1.5031 C.3       1 <0>        -0.0626
     20 C16         4.0146    1.0017   -0.4849 C.ar      1 <0>         0.1618
     21 C17         4.4840   -0.2712   -0.1808 C.ar      1 <0>         0.1618
     22 C18         5.2315    2.7981    0.4883 C.3       1 <0>         0.0790
     23 C19         6.2141   -1.8411    0.2637 C.3       1 <0>         0.0790
     24 H1          0.0395    0.5368   -1.6681 H         1 <0>         0.0516
     25 H2         -2.5711    0.5958    1.3394 H         1 <0>         0.0390
     26 H3         -2.5679   -1.4019   -0.1054 H         1 <0>         0.0433
     27 H4         -2.1438   -0.4425   -1.5306 H         1 <0>         0.0433
     28 H5          0.2453    2.6035   -0.3086 H         1 <0>         0.0360
     29 H6         -0.0278    1.6988    1.1888 H         1 <0>         0.0360
     30 H7         -0.0621   -1.9706   -1.6856 H         1 <0>         0.0430
     31 H8         -0.7846   -2.7963   -0.2999 H         1 <0>         0.0430
     32 H9         -4.4705    1.8108    0.3641 H         1 <0>         0.0275
     33 H10        -4.0828    1.2310   -1.2440 H         1 <0>         0.0275
     34 H11         1.6698   -3.1556   -0.4520 H         1 <0>         0.0326
     35 H12         1.1538   -2.4591    1.0936 H         1 <0>         0.0326
     36 H13        -4.6004   -1.1209   -0.5577 H         1 <0>         0.0296
     37 H14         2.3076    2.2312   -0.8718 H         1 <0>         0.0659
     38 H15         3.8869   -2.3361    0.2103 H         1 <0>         0.0658
     39 H16        -6.3486    0.2923   -1.5431 H         1 <0>         0.0232
     40 H17        -7.0205   -0.8498   -0.3721 H         1 <0>         0.0232
     41 H18        -6.8278    0.8558    0.0679 H         1 <0>         0.0232
     42 H19        -5.7447   -1.5151    1.6379 H         1 <0>         0.0232
     43 H20        -4.0606   -1.0570    1.8651 H         1 <0>         0.0232
     44 H21        -5.3445    0.1343    2.1415 H         1 <0>         0.0232
     45 H22         4.3428    3.2743    0.9147 H         1 <0>         0.0660
     46 H23         5.9345    3.5785    0.1842 H         1 <0>         0.0660
     47 H24         5.7150    2.1645    1.2385 H         1 <0>         0.0660
     48 H25         7.3068   -1.8441    0.3368 H         1 <0>         0.0660
     49 H26         5.9480   -2.5392   -0.5373 H         1 <0>         0.0660
     50 H27         5.8301   -2.1580    1.2393 H         1 <0>         0.0660
@<TRIPOS>BOND
     1    1   11 2
     2    2   20 1
     3    2   22 1
     4    3   21 1
     5    3   23 1
     6    4    5 1
     7    4    7 1
     8    4    9 1
     9    5    8 1
    10    5   10 1
    11    5   24 1
    12    6    7 1
    13    6   11 1
    14    6   12 1
    15    6   25 1
    16    7   26 1
    17    7   27 1
    18    8   11 1
    19    8   28 1
    20    8   29 1
    21    9   13 1
    22    9   30 1
    23    9   31 1
    24   10   14 ar
    25   10   16 ar
    26   12   15 1
    27   12   32 1
    28   12   33 1
    29   13   14 1
    30   13   34 1
    31   13   35 1
    32   14   17 ar
    33   15   18 1
    34   15   19 1
    35   15   36 1
    36   16   20 ar
    37   16   37 1
    38   17   21 ar
    39   17   38 1
    40   18   39 1
    41   18   40 1
    42   18   41 1
    43   19   42 1
    44   19   43 1
    45   19   44 1
    46   20   21 ar
    47   22   45 1
    48   22   46 1
    49   22   47 1
    50   23   48 1
    51   23   49 1
    52   23   50 1
