@<TRIPOS>MOLECULE
DB12020
   42    46     0     0     0
SMALL
USER_CHARGES

@<TRIPOS>ATOM
      1 F1         -7.8900   -1.3134    0.0141 F         1 <0>        -0.1659
      2 F2         -7.8485    0.5521    1.1196 F         1 <0>        -0.1659
      3 F3         -7.7869    0.5779   -1.0540 F         1 <0>        -0.1659
      4 O1          0.7546   -0.2905   -2.4457 O.2       1 <0>        -0.2733
      5 O2          0.8026    1.8885    1.6526 O.2       1 <0>        -0.2733
      6 O3         -0.9775   -1.2508    0.6160 O.2       1 <0>        -0.2686
      7 N1          0.4745    0.8421   -0.4160 N.am      1 <0>        -0.1546
      8 N2         -0.8870    0.8310   -0.3943 N.am      1 <0>        -0.2209
      9 C1          4.9249   -0.2565   -0.7449 C.3       1 <0>        -0.0304
     10 C2          4.9409    0.4582    0.5958 C.3       1 <0>        -0.0304
     11 C3          5.7870   -0.7745    0.3820 C.3       1 <0>        -0.0457
     12 C4          3.5053   -0.7517   -1.0704 C.3       1 <0>        -0.0079
     13 C5          3.5330    0.4657    1.2156 C.3       1 <0>        -0.0079
     14 C6          2.6451    0.5471   -1.1731 C.3       1 <0>         0.0558
     15 C7          2.6613    1.2842    0.2120 C.3       1 <0>         0.0558
     16 C8          2.9312   -1.5735    0.0795 C.2       1 <0>        -0.0835
     17 C9          2.9456   -0.9414    1.2667 C.2       1 <0>        -0.0835
     18 C10         1.1813    0.2974   -1.4630 C.2       1 <0>         0.2429
     19 C11         1.2054    1.3985    0.6080 C.2       1 <0>         0.2429
     20 C12        -1.5387   -0.2647    0.1448 C.2       1 <0>         0.2607
     21 C13        -3.0242   -0.2175    0.1163 C.ar      1 <0>         0.0382
     22 C14        -3.7595   -1.4027    0.0891 C.ar      1 <0>        -0.0491
     23 C15        -3.6831    1.0119    0.1185 C.ar      1 <0>        -0.0491
     24 C16        -5.1533   -1.3585    0.0640 C.ar      1 <0>        -0.0494
     25 C17        -5.0771    1.0563    0.0933 C.ar      1 <0>        -0.0494
     26 C18        -5.8121   -0.1290    0.0661 C.ar      1 <0>         0.0549
     27 C19        -7.3022   -0.0806    0.0391 C.3       1 <0>         0.4174
     28 H1          5.4111    0.2259   -1.5834 H         1 <0>         0.0310
     29 H2          5.4376    1.4184    0.6536 H         1 <0>         0.0310
     30 H3          5.5298   -1.7002    0.8785 H         1 <0>         0.0271
     31 H4          6.8587   -0.6301    0.2921 H         1 <0>         0.0271
     32 H5          3.4918   -1.3261   -2.0018 H         1 <0>         0.0353
     33 H6          3.5430    0.9178    2.2121 H         1 <0>         0.0353
     34 H7          3.0392    1.2143   -1.9500 H         1 <0>         0.0408
     35 H8          3.0622    2.2977    0.0851 H         1 <0>         0.0408
     36 H9          2.5478   -2.5750   -0.0592 H         1 <0>         0.0572
     37 H10         2.5751   -1.3815    2.1824 H         1 <0>         0.0572
     38 H11        -1.3460    1.6211   -0.8341 H         1 <0>         0.1738
     39 H12        -3.2642   -2.3701    0.0828 H         1 <0>         0.0625
     40 H13        -3.1479    1.9557    0.1670 H         1 <0>         0.0625
     41 H14        -5.7086   -2.2921    0.0419 H         1 <0>         0.0623
     42 H15        -5.5822    2.0186    0.1013 H         1 <0>         0.0623
@<TRIPOS>BOND
     1    1   27 1
     2    2   27 1
     3    3   27 1
     4    4   18 2
     5    5   19 2
     6    6   20 2
     7    7    8 1
     8    7   18 am
     9    7   19 am
    10    8   20 am
    11    8   38 1
    12    9   10 1
    13    9   11 1
    14    9   12 1
    15    9   28 1
    16   10   11 1
    17   10   13 1
    18   10   29 1
    19   11   30 1
    20   11   31 1
    21   12   14 1
    22   12   16 1
    23   12   32 1
    24   13   15 1
    25   13   17 1
    26   13   33 1
    27   14   15 1
    28   14   18 1
    29   14   34 1
    30   15   19 1
    31   15   35 1
    32   16   17 2
    33   16   36 1
    34   17   37 1
    35   20   21 1
    36   21   22 ar
    37   21   23 ar
    38   22   24 ar
    39   22   39 1
    40   23   25 ar
    41   23   40 1
    42   24   26 ar
    43   24   41 1
    44   25   26 ar
    45   25   42 1
    46   26   27 1
