@<TRIPOS>MOLECULE
DB12332
   42    45     0     0     0
SMALL
USER_CHARGES

@<TRIPOS>ATOM
      1 F1         -6.2661   -2.8607    0.1245 F         1 <0>        -0.2054
      2 O1         -5.7396    1.9613   -0.8941 O.2       1 <0>        -0.2702
      3 N1         -1.5026   -1.8992    0.0667 N.pl3     1 <0>        -0.3538
      4 N2         -3.7323    2.6608   -0.0886 N.am      1 <0>        -0.3110
      5 N3          5.4386    0.7025   -0.0241 N.3       1 <0>        -0.3150
      6 C1         -1.7258    0.3052   -0.1044 C.2       1 <0>        -0.0122
      7 C2         -3.0321   -0.2757   -0.0877 C.ar      1 <0>         0.0157
      8 C3         -1.4267    1.7602   -0.1553 C.3       1 <0>        -0.0094
      9 C4         -0.8120   -0.7239   -0.0210 C.cat     1 <0>         0.0508
     10 C5         -2.8566   -1.6572    0.0405 C.ar      1 <0>         0.0506
     11 C6         -4.3455    0.2389   -0.1624 C.ar      1 <0>         0.0488
     12 C7         -2.4659    2.5571    0.6217 C.3       1 <0>         0.0160
     13 C8          0.6327   -0.7012   -0.0006 C.ar      1 <0>        -0.0014
     14 C9         -4.6482    1.6727   -0.3982 C.2       1 <0>         0.2448
     15 C10        -3.9238   -2.5572    0.1172 C.ar      1 <0>        -0.0025
     16 C11        -5.4248   -0.6636   -0.0884 C.ar      1 <0>        -0.0136
     17 C12        -5.2139   -2.0334    0.0555 C.ar      1 <0>         0.1261
     18 C13         1.3092   -0.6093    1.2141 C.ar      1 <0>        -0.0523
     19 C14         1.3453   -0.7719   -1.1961 C.ar      1 <0>        -0.0523
     20 C15         3.4192   -0.6586    0.0379 C.ar      1 <0>        -0.0336
     21 C16         2.7038   -0.5879    1.2335 C.ar      1 <0>        -0.0567
     22 C17         2.7399   -0.7507   -1.1767 C.ar      1 <0>        -0.0567
     23 C18         4.9100   -0.6355    0.0584 C.3       1 <0>         0.0210
     24 C19         6.9005    0.7048    0.0078 C.3       1 <0>        -0.0155
     25 H1         -0.4433    1.9545    0.2885 H         1 <0>         0.0329
     26 H2         -1.3851    2.0902   -1.2002 H         1 <0>         0.0329
     27 H3         -1.0855   -2.8165    0.1481 H         1 <0>         0.1659
     28 H4         -2.6615    2.1250    1.6099 H         1 <0>         0.0465
     29 H5         -2.1088    3.5827    0.7652 H         1 <0>         0.0465
     30 H6         -4.0266    3.6063   -0.3142 H         1 <0>         0.1490
     31 H7         -3.7588   -3.6245    0.2197 H         1 <0>         0.0667
     32 H8         -6.4514   -0.3079   -0.1442 H         1 <0>         0.0654
     33 H9          0.7659   -0.5524    2.1543 H         1 <0>         0.0624
     34 H10         0.8303   -0.8434   -2.1512 H         1 <0>         0.0624
     35 H11         3.2207   -0.5140    2.1866 H         1 <0>         0.0621
     36 H12         3.2852   -0.8045   -2.1154 H         1 <0>         0.0621
     37 H13         5.2581   -1.1269    0.9769 H         1 <0>         0.0473
     38 H14         5.2887   -1.2520   -0.7679 H         1 <0>         0.0473
     39 H15         5.1300    1.1451   -0.8899 H         1 <0>         0.1219
     40 H16         7.2757    0.2720    0.9407 H         1 <0>         0.0388
     41 H17         7.2629    1.7359   -0.0471 H         1 <0>         0.0388
     42 H18         7.3199    0.1529   -0.8398 H         1 <0>         0.0388
@<TRIPOS>BOND
     1    1   17 1
     2    2   14 2
     3    3    9 1
     4    3   10 2
     5    3   27 1
     6    4   12 1
     7    4   14 am
     8    4   30 1
     9    5   23 1
    10    5   24 1
    11    5   39 1
    12    6    7 2
    13    6    8 1
    14    6    9 1
    15    7   10 ar
    16    7   11 ar
    17    8   12 1
    18    8   25 1
    19    8   26 1
    20    9   13 1
    21   10   15 ar
    22   11   14 1
    23   11   16 ar
    24   12   28 1
    25   12   29 1
    26   13   18 ar
    27   13   19 ar
    28   15   17 ar
    29   15   31 1
    30   16   17 ar
    31   16   32 1
    32   18   21 ar
    33   18   33 1
    34   19   22 ar
    35   19   34 1
    36   20   21 ar
    37   20   22 ar
    38   20   23 1
    39   21   35 1
    40   22   36 1
    41   23   37 1
    42   23   38 1
    43   24   40 1
    44   24   41 1
    45   24   42 1
