@<TRIPOS>MOLECULE
DB13813
    5     4     0     0     0
SMALL
USER_CHARGES

@<TRIPOS>ATOM
      1 I1          1.9559    0.1999    0.5269 I         1 <0>        -0.0589
      2 I2         -0.8049   -1.7937    0.5268 I         1 <0>        -0.0589
      3 I3         -1.1512    1.5938    0.5268 I         1 <0>        -0.0589
      4 C1          0.0001   -0.0000   -0.2433 C.3       1 <0>         0.1138
      5 H1          0.0001    0.0001   -1.3372 H         1 <0>         0.0629
@<TRIPOS>BOND
     1    1    4 1
     2    2    4 1
     3    3    4 1
     4    4    5 1
