@<TRIPOS>MOLECULE
DB13931
   61    64     0     0     0
SMALL
USER_CHARGES

@<TRIPOS>ATOM
      1 O1         -3.3089    1.5170   -0.0862 O.3       1 <0>        -0.4564
      2 O2          3.6331    1.4991    1.8732 O.2       1 <0>        -0.2748
      3 O3         -5.4754    2.2235   -0.4127 O.2       1 <0>        -0.2449
      4 N1          3.6935    0.5324   -0.2696 N.am      1 <0>        -0.2849
      5 N2          3.1301    5.3296    0.0557 N.3       1 <0>        -0.3289
      6 N3          5.6779   -5.5782   -0.3424 N.ar      1 <0>        -0.2626
      7 C1          2.9673    2.8481   -0.0194 C.3       1 <0>         0.0731
      8 C2          1.4496    2.8397   -0.1174 C.ar      1 <0>        -0.0343
      9 C3          3.5137    4.0866    0.7199 C.3       1 <0>         0.0083
     10 C4          3.4625    1.5612    0.6588 C.2       1 <0>         0.2258
     11 C5          0.8312    2.8432   -1.3678 C.ar      1 <0>        -0.0574
     12 C6          0.6759    2.8294    1.0432 C.ar      1 <0>        -0.0574
     13 C7         -1.3344    2.8262   -0.2970 C.ar      1 <0>        -0.0103
     14 C8         -0.5607    2.8364   -1.4576 C.ar      1 <0>        -0.0551
     15 C9         -0.7161    2.8228    0.9535 C.ar      1 <0>        -0.0551
     16 C10         4.1438   -0.7657   -0.0256 C.ar      1 <0>         0.0340
     17 C11        -2.8226    2.8181   -0.3928 C.3       1 <0>         0.1179
     18 C12         4.3200   -1.6532   -1.0888 C.ar      1 <0>        -0.0327
     19 C13         4.7711   -2.9631   -0.8586 C.ar      1 <0>        -0.0133
     20 C14         4.4152   -1.1737    1.2781 C.ar      1 <0>        -0.0398
     21 C15         5.0449   -3.3724    0.4629 C.ar      1 <0>         0.0003
     22 C16         4.8642   -2.4709    1.5249 C.ar      1 <0>        -0.0508
     23 C17        -5.0373   -0.0375    0.2047 C.ar      1 <0>         0.0619
     24 C18        -5.7321   -0.8374   -0.7028 C.ar      1 <0>        -0.0362
     25 C19        -4.6600    1.3580   -0.1339 C.2       1 <0>         0.3398
     26 C20         4.9579   -3.8762   -1.9030 C.ar      1 <0>        -0.0358
     27 C21        -5.7244   -2.6528    0.8916 C.ar      1 <0>        -0.0502
     28 C22        -6.0755   -2.1450   -0.3591 C.ar      1 <0>        -0.0551
     29 C23        -4.6859   -0.5453    1.4554 C.ar      1 <0>        -0.0473
     30 C24         5.4916   -4.6816    0.6525 C.ar      1 <0>         0.0353
     31 C25        -5.0296   -1.8527    1.7991 C.ar      1 <0>        -0.0580
     32 C26        -6.1195   -0.3190   -2.0494 C.3       1 <0>        -0.0389
     33 C27         5.4060   -5.1513   -1.5941 C.ar      1 <0>         0.0281
     34 C28        -6.0912   -4.0504    1.2604 C.3       1 <0>        -0.0397
     35 H1          3.3899    2.8718   -1.0343 H         1 <0>         0.0456
     36 H2          3.1686    4.1189    1.7600 H         1 <0>         0.0432
     37 H3          4.6083    4.0322    0.7561 H         1 <0>         0.0432
     38 H4          1.4207    2.8504   -2.2807 H         1 <0>         0.0621
     39 H5          1.1368    2.8249    2.0269 H         1 <0>         0.0621
     40 H6         -1.0286    2.8370   -2.4385 H         1 <0>         0.0621
     41 H7         -1.3092    2.8136    1.8642 H         1 <0>         0.0621
     42 H8          3.5071    0.7459   -1.2470 H         1 <0>         0.1548
     43 H9         -3.2406    3.5483    0.3117 H         1 <0>         0.0749
     44 H10        -3.1479    3.1027   -1.4012 H         1 <0>         0.0749
     45 H11         3.5179    6.1191    0.5708 H         1 <0>         0.1182
     46 H12         2.1180    5.4427    0.0876 H         1 <0>         0.1182
     47 H13         4.1053   -1.3266   -2.1052 H         1 <0>         0.0642
     48 H14         4.3010   -0.5466    2.1509 H         1 <0>         0.0636
     49 H15         5.0714   -2.7747    2.5487 H         1 <0>         0.0625
     50 H16         4.7602   -3.6060   -2.9359 H         1 <0>         0.0639
     51 H17        -6.6197   -2.7715   -1.0619 H         1 <0>         0.0623
     52 H18        -4.1480    0.0679    2.1740 H         1 <0>         0.0626
     53 H19         5.7205   -5.0606    1.6448 H         1 <0>         0.0836
     54 H20        -4.7526   -2.2358    2.7778 H         1 <0>         0.0620
     55 H21        -6.9125    0.4298   -1.9561 H         1 <0>         0.0278
     56 H22        -5.2579    0.1243   -2.5596 H         1 <0>         0.0278
     57 H23        -6.4941   -1.1184   -2.6983 H         1 <0>         0.0278
     58 H24         5.5627   -5.8872   -2.3762 H         1 <0>         0.0830
     59 H25        -5.3753   -4.4732    1.9736 H         1 <0>         0.0278
     60 H26        -6.0898   -4.7033    0.3809 H         1 <0>         0.0278
     61 H27        -7.0881   -4.0706    1.7116 H         1 <0>         0.0278
@<TRIPOS>BOND
     1    1   17 1
     2    1   25 1
     3    2   10 2
     4    3   25 2
     5    4   10 am
     6    4   16 1
     7    4   42 1
     8    5    9 1
     9    5   45 1
    10    5   46 1
    11    6   30 ar
    12    6   33 ar
    13    7    8 1
    14    7    9 1
    15    7   10 1
    16    7   35 1
    17    8   11 ar
    18    8   12 ar
    19    9   36 1
    20    9   37 1
    21   11   14 ar
    22   11   38 1
    23   12   15 ar
    24   12   39 1
    25   13   14 ar
    26   13   15 ar
    27   13   17 1
    28   14   40 1
    29   15   41 1
    30   16   18 ar
    31   16   20 ar
    32   17   43 1
    33   17   44 1
    34   18   19 ar
    35   18   47 1
    36   19   21 ar
    37   19   26 ar
    38   20   22 ar
    39   20   48 1
    40   21   22 ar
    41   21   30 ar
    42   22   49 1
    43   23   24 ar
    44   23   25 1
    45   23   29 ar
    46   24   28 ar
    47   24   32 1
    48   26   33 ar
    49   26   50 1
    50   27   28 ar
    51   27   31 ar
    52   27   34 1
    53   28   51 1
    54   29   31 ar
    55   29   52 1
    56   30   53 1
    57   31   54 1
    58   32   55 1
    59   32   56 1
    60   32   57 1
    61   33   58 1
    62   34   59 1
    63   34   60 1
    64   34   61 1
