@<TRIPOS>MOLECULE
DB13848
   25    25     0     0     0
SMALL
USER_CHARGES

@<TRIPOS>ATOM
      1 F1         -0.2994   -2.6789   -0.2715 F         1 <0>        -0.2051
      2 O1         -2.7755    2.1328    0.6668 O.3       1 <0>        -0.5033
      3 O2          1.5062    1.8658   -1.3595 O.3       1 <0>        -0.4795
      4 O3         -4.2186   -0.0053   -0.3675 O.3       1 <0>        -0.5032
      5 O4          3.2971    1.8909    0.0326 O.2       1 <0>        -0.2492
      6 N1          3.4933   -0.8331   -0.2357 N.3       1 <0>        -0.3181
      7 C1          1.2759   -0.5844    0.7823 C.3       1 <0>         0.0008
      8 C2          2.1760   -0.2256   -0.4104 C.3       1 <0>         0.1073
      9 C3         -0.1957   -0.4282    0.4752 C.ar      1 <0>        -0.0065
     10 C4         -0.8099    0.7897    0.7159 C.ar      1 <0>        -0.0106
     11 C5         -0.9005   -1.5035   -0.0398 C.ar      1 <0>         0.1303
     12 C6         -2.1677    0.9365    0.4330 C.ar      1 <0>         0.1587
     13 C7          2.4003    1.2724   -0.5265 C.2       1 <0>         0.3220
     14 C8         -2.2585   -1.3565   -0.3227 C.ar      1 <0>         0.0190
     15 C9         -2.8922   -0.1366   -0.0862 C.ar      1 <0>         0.1610
     16 H1          1.5321    0.0257    1.6594 H         1 <0>         0.0334
     17 H2          1.4480   -1.6240    1.0938 H         1 <0>         0.0334
     18 H3          1.7654   -0.5951   -1.3571 H         1 <0>         0.0577
     19 H4         -0.2500    1.6275    1.1226 H         1 <0>         0.0659
     20 H5         -2.8103   -2.2006   -0.7274 H         1 <0>         0.0684
     21 H6          3.3989   -1.8476   -0.1988 H         1 <0>         0.1190
     22 H7          3.8847   -0.5583    0.6650 H         1 <0>         0.1190
     23 H8         -3.7119    2.0548    0.4142 H         1 <0>         0.2923
     24 H9          1.6654    2.8305   -1.4392 H         1 <0>         0.2951
     25 H10        -4.5529   -0.8485   -0.7186 H         1 <0>         0.2923
@<TRIPOS>BOND
     1    1   11 1
     2    2   12 1
     3    2   23 1
     4    3   13 1
     5    3   24 1
     6    4   15 1
     7    4   25 1
     8    5   13 2
     9    6    8 1
    10    6   21 1
    11    6   22 1
    12    7    8 1
    13    7    9 1
    14    7   16 1
    15    7   17 1
    16    8   13 1
    17    8   18 1
    18    9   10 ar
    19    9   11 ar
    20   10   12 ar
    21   10   19 1
    22   11   14 ar
    23   12   15 ar
    24   14   15 ar
    25   14   20 1
