@<TRIPOS>MOLECULE
DB13874
   50    52     0     0     0
SMALL
USER_CHARGES

@<TRIPOS>ATOM
      1 F1          4.3501   -4.7542    0.4607 F         1 <0>        -0.1644
      2 F2          4.5861   -2.9270   -0.6940 F         1 <0>        -0.1644
      3 F3          4.4707   -2.8319    1.4696 F         1 <0>        -0.1644
      4 F4          6.6541    1.1731   -1.8916 F         1 <0>        -0.1644
      5 F5          6.6070    0.1747    0.0331 F         1 <0>        -0.1644
      6 F6          5.0882   -0.2717   -1.4575 F         1 <0>        -0.1644
      7 O1         -5.5373    1.2368   -1.5096 O.3       1 <0>        -0.3876
      8 N1         -2.9926    1.0158   -0.1883 N.pl3     1 <0>        -0.3106
      9 N2         -1.2352   -0.4918   -0.0253 N.ar      1 <0>        -0.1931
     10 N3         -0.8361    1.8729   -0.1091 N.ar      1 <0>        -0.1808
     11 N4          1.3701    2.6649   -0.0245 N.pl3     1 <0>        -0.2834
     12 N5          1.0104    0.3496    0.0579 N.ar      1 <0>        -0.1928
     13 N6          1.9456   -2.0847    0.2151 N.ar      1 <0>        -0.2396
     14 N7          5.5610    2.8924    0.1953 N.ar      1 <0>        -0.2509
     15 C1         -5.4068    0.5263   -0.2756 C.3       1 <0>         0.0759
     16 C2         -3.9808   -0.0399   -0.1961 C.3       1 <0>         0.0401
     17 C3         -6.4159   -0.6263   -0.2921 C.3       1 <0>        -0.0349
     18 C4         -5.7215    1.4815    0.8789 C.3       1 <0>        -0.0349
     19 C5         -1.6295    0.7896   -0.1035 C.ar      1 <0>         0.2202
     20 C6          0.0975   -0.6353    0.0527 C.ar      1 <0>         0.1849
     21 C7          0.4709    1.5765   -0.0258 C.ar      1 <0>         0.2244
     22 C8          0.5998   -1.9814    0.1388 C.ar      1 <0>         0.1087
     23 C9          2.7736    2.7408    0.0489 C.ar      1 <0>         0.0370
     24 C10        -0.2628   -3.0658    0.1406 C.ar      1 <0>        -0.0326
     25 C11         3.5564    1.7130   -0.4650 C.ar      1 <0>        -0.0104
     26 C12         2.4480   -3.3373    0.2973 C.ar      1 <0>         0.1443
     27 C13         3.3826    3.8443    0.6361 C.ar      1 <0>        -0.0223
     28 C14         4.9332    1.8358   -0.3679 C.ar      1 <0>         0.1453
     29 C15         0.2915   -4.3381    0.2264 C.ar      1 <0>        -0.0577
     30 C16         1.6718   -4.4851    0.3066 C.ar      1 <0>        -0.0316
     31 C17         4.7671    3.8717    0.6839 C.ar      1 <0>         0.0300
     32 C18         3.9330   -3.4575    0.3815 C.3       1 <0>         0.4342
     33 C19         5.8047    0.7518   -0.9090 C.3       1 <0>         0.4343
     34 H1         -3.7980   -0.6844   -1.0654 H         1 <0>         0.0490
     35 H2         -3.8767   -0.6515    0.7088 H         1 <0>         0.0490
     36 H3         -6.2380   -1.2881   -1.1475 H         1 <0>         0.0258
     37 H4         -5.5718    0.9992    1.8503 H         1 <0>         0.0258
     38 H5         -6.7614    1.8245    0.8243 H         1 <0>         0.0258
     39 H6         -7.4395   -0.2500   -0.4020 H         1 <0>         0.0258
     40 H7         -6.3633   -1.2216    0.6253 H         1 <0>         0.0258
     41 H8         -5.1072    2.3869    0.8381 H         1 <0>         0.0258
     42 H9         -3.2846    1.9791   -0.3043 H         1 <0>         0.1490
     43 H10        -6.4417    1.5910   -1.5581 H         1 <0>         0.2102
     44 H11         0.8960    3.5602    0.0478 H         1 <0>         0.1550
     45 H12        -1.3416   -2.9681    0.0789 H         1 <0>         0.0640
     46 H13         3.1250    0.8565   -0.9681 H         1 <0>         0.0657
     47 H14         2.8029    4.6637    1.0478 H         1 <0>         0.0651
     48 H15        -0.3509   -5.2135    0.2308 H         1 <0>         0.0619
     49 H16         2.1047   -5.4771    0.3735 H         1 <0>         0.0638
     50 H17         5.2909    4.7099    1.1315 H         1 <0>         0.0830
@<TRIPOS>BOND
     1    1   32 1
     2    2   32 1
     3    3   32 1
     4    4   33 1
     5    5   33 1
     6    6   33 1
     7    7   15 1
     8    7   43 1
     9    8   16 1
    10    8   19 1
    11    8   42 1
    12    9   19 ar
    13    9   20 ar
    14   10   19 ar
    15   10   21 ar
    16   11   21 1
    17   11   23 1
    18   11   44 1
    19   12   20 ar
    20   12   21 ar
    21   13   22 ar
    22   13   26 ar
    23   14   28 ar
    24   14   31 ar
    25   15   16 1
    26   15   17 1
    27   15   18 1
    28   16   34 1
    29   16   35 1
    30   17   36 1
    31   17   39 1
    32   17   40 1
    33   18   37 1
    34   18   38 1
    35   18   41 1
    36   20   22 1
    37   22   24 ar
    38   23   25 ar
    39   23   27 ar
    40   24   29 ar
    41   24   45 1
    42   25   28 ar
    43   25   46 1
    44   26   30 ar
    45   26   32 1
    46   27   31 ar
    47   27   47 1
    48   28   33 1
    49   29   30 ar
    50   29   48 1
    51   30   49 1
    52   31   50 1
