@<TRIPOS>MOLECULE
DB13286
   46    47     0     0     0
SMALL
USER_CHARGES

@<TRIPOS>ATOM
      1 O1          1.0228    1.0616    1.5427 O.2       1 <0>        -0.2728
      2 O2          0.3108   -3.3459    0.9647 O.3       1 <0>        -0.4801
      3 O3         -0.0306   -1.7953    2.5863 O.2       1 <0>        -0.2502
      4 N1         -0.5795    0.6862   -0.1153 N.am      1 <0>        -0.1896
      5 N2         -1.0352   -0.2453   -1.0352 N.pl3     1 <0>        -0.2574
      6 C1          2.5796   -1.1174    0.7559 C.3       1 <0>        -0.0316
      7 C2          1.0549   -1.1100    0.5221 C.3       1 <0>         0.1341
      8 C3          3.3452   -0.2402   -0.2407 C.3       1 <0>        -0.0521
      9 C4          4.8550   -0.3359   -0.0166 C.3       1 <0>        -0.0559
     10 C5          0.4887    0.3156    0.7177 C.2       1 <0>         0.2500
     11 C6          0.3935   -2.0919    1.4766 C.2       1 <0>         0.3168
     12 C7          5.6220    0.5033   -1.0259 C.3       1 <0>        -0.0653
     13 C8         -1.1805    1.9886   -0.0170 C.ar      1 <0>         0.0560
     14 C9         -2.1309   -1.0737   -0.7416 C.ar      1 <0>         0.0450
     15 C10        -1.1804    2.6196    1.2037 C.ar      1 <0>        -0.0386
     16 C11        -1.7277    2.5449   -1.1484 C.ar      1 <0>        -0.0386
     17 C12        -1.7632    3.8832    1.2992 C.ar      1 <0>        -0.0599
     18 C13        -2.3102    3.8086   -1.0528 C.ar      1 <0>        -0.0599
     19 C14        -2.6541   -1.9219   -1.7217 C.ar      1 <0>        -0.0394
     20 C15        -2.7053   -1.0544    0.5326 C.ar      1 <0>        -0.0394
     21 C16        -2.3280    4.4778    0.1710 C.ar      1 <0>        -0.0616
     22 C17        -3.7426   -2.7439   -1.4301 C.ar      1 <0>        -0.0600
     23 C18        -3.7938   -1.8765    0.8242 C.ar      1 <0>        -0.0600
     24 C19        -4.3124   -2.7213   -0.1573 C.ar      1 <0>        -0.0616
     25 H1          2.9449   -2.1501    0.6786 H         1 <0>         0.0278
     26 H2          2.8076   -0.7935    1.7799 H         1 <0>         0.0278
     27 H3          0.8838   -1.4558   -0.5018 H         1 <0>         0.0510
     28 H4          3.0352    0.8067   -0.1511 H         1 <0>         0.0266
     29 H5          3.1066   -0.5598   -1.2625 H         1 <0>         0.0266
     30 H6          5.1792   -1.3799   -0.0993 H         1 <0>         0.0263
     31 H7          5.1026    0.0019    0.9964 H         1 <0>         0.0263
     32 H8          5.4209    0.1684   -2.0485 H         1 <0>         0.0230
     33 H9          5.3447    1.5595   -0.9492 H         1 <0>         0.0230
     34 H10         6.6987    0.4210   -0.8471 H         1 <0>         0.0230
     35 H11        -0.6305   -0.2272   -1.9625 H         1 <0>         0.1706
     36 H12        -0.8277    2.1725    2.1251 H         1 <0>         0.0637
     37 H13        -1.7156    2.0460   -2.1123 H         1 <0>         0.0637
     38 H14        -0.1237   -3.9670    1.5872 H         1 <0>         0.2951
     39 H15        -1.7936    4.3973    2.2555 H         1 <0>         0.0618
     40 H16        -2.7489    4.2724   -1.9315 H         1 <0>         0.0618
     41 H17        -2.2190   -1.9492   -2.7177 H         1 <0>         0.0636
     42 H18        -2.3351   -0.4162    1.3292 H         1 <0>         0.0636
     43 H19        -2.7849    5.4602    0.2461 H         1 <0>         0.0618
     44 H20        -4.1465   -3.4017   -2.1941 H         1 <0>         0.0618
     45 H21        -4.2371   -1.8601    1.8155 H         1 <0>         0.0618
     46 H22        -5.1597   -3.3616    0.0699 H         1 <0>         0.0618
@<TRIPOS>BOND
     1    1   10 2
     2    2   11 1
     3    2   38 1
     4    3   11 2
     5    4    5 1
     6    4   10 am
     7    4   13 1
     8    5   14 1
     9    5   35 1
    10    6    7 1
    11    6    8 1
    12    6   25 1
    13    6   26 1
    14    7   10 1
    15    7   11 1
    16    7   27 1
    17    8    9 1
    18    8   28 1
    19    8   29 1
    20    9   12 1
    21    9   30 1
    22    9   31 1
    23   12   32 1
    24   12   33 1
    25   12   34 1
    26   13   15 ar
    27   13   16 ar
    28   14   19 ar
    29   14   20 ar
    30   15   17 ar
    31   15   36 1
    32   16   18 ar
    33   16   37 1
    34   17   21 ar
    35   17   39 1
    36   18   21 ar
    37   18   40 1
    38   19   22 ar
    39   19   41 1
    40   20   23 ar
    41   20   42 1
    42   21   43 1
    43   22   24 ar
    44   22   44 1
    45   23   24 ar
    46   23   45 1
    47   24   46 1
