@<TRIPOS>MOLECULE
DB13960
   15    14     0     0     0
SMALL
USER_CHARGES

@<TRIPOS>ATOM
      1 Br1        -0.6930   -0.2704    2.2250 Br        1 <0>         0.0048
      2 O1          1.3658    1.1162   -1.1208 O.3       1 <0>        -0.3869
      3 O2         -2.1134    0.8382   -0.3571 O.3       1 <0>        -0.3869
      4 O3          2.0194   -1.3374    0.6153 O.3       1 <0>        -0.5804
      5 O4          0.3148   -2.4541   -0.1926 O.2       1 <0>         0.0360
      6 N1          0.8341   -1.4264    0.2656 N.pl3     1 <0>         0.0605
      7 C1         -0.0402   -0.1803    0.3784 C.3       1 <0>         0.3232
      8 C2          0.8197    1.0741    0.1936 C.3       1 <0>         0.1272
      9 C3         -1.2376   -0.2631   -0.5719 C.3       1 <0>         0.1272
     10 H1          1.6454    1.1413    0.9120 H         1 <0>         0.0639
     11 H2          0.2182    1.9803    0.3266 H         1 <0>         0.0639
     12 H3         -0.9184   -0.2434   -1.6194 H         1 <0>         0.0639
     13 H4         -1.8292   -1.1747   -0.4284 H         1 <0>         0.0639
     14 H5          2.0014    0.3854   -1.2019 H         1 <0>         0.2098
     15 H6         -2.3870    0.8145    0.5757 H         1 <0>         0.2098
@<TRIPOS>BOND
     1    1    7 1
     2    2    8 1
     3    2   14 1
     4    3    9 1
     5    3   15 1
     6    4    6 1
     7    5    6 2
     8    6    7 1
     9    7    8 1
    10    7    9 1
    11    8   10 1
    12    8   11 1
    13    9   12 1
    14    9   13 1
