@<TRIPOS>MOLECULE
DB13063
   38    40     0     0     0
SMALL
USER_CHARGES

@<TRIPOS>ATOM
      1 O1         -0.9032    1.3972    1.1427 O.3       1 <0>        -0.3612
      2 O2          1.4127    1.4255   -1.7361 O.3       1 <0>        -0.4548
      3 O3          3.5066    2.3557   -1.9122 O.2       1 <0>        -0.2453
      4 C1         -1.8242    1.4965    0.0564 C.3       1 <0>         0.0971
      5 C2         -0.3251    1.7649   -0.1148 C.3       1 <0>         0.1254
      6 C3          0.6378    0.7662   -0.7055 C.3       1 <0>         0.1390
      7 C4          1.6582    0.1832    0.2845 C.3       1 <0>         0.0303
      8 C5         -2.5106    0.2241   -0.3676 C.3       1 <0>        -0.0180
      9 C6         -2.7121    2.6894    0.1808 C.3       1 <0>        -0.0332
     10 C7          2.0056   -1.3019    0.0018 C.3       1 <0>        -0.0388
     11 C8         -2.5666   -0.9106    0.6697 C.3       1 <0>        -0.0318
     12 C9          2.8273    1.0686    0.0103 C.2       1 <0>         0.0362
     13 C10         1.0608   -2.3202    0.6774 C.3       1 <0>        -0.0313
     14 C11         2.6729    1.7079   -1.3061 C.2       1 <0>         0.3353
     15 C12        -1.2122   -1.4410    1.0393 C.2       1 <0>        -0.0849
     16 C13        -0.3854   -2.1694    0.2658 C.2       1 <0>        -0.0765
     17 C14         3.8650    1.3312    0.8084 C.2       1 <0>        -0.0883
     18 C15        -0.7605   -2.7810   -1.0542 C.3       1 <0>        -0.0438
     19 H1          0.0184    2.7886   -0.2040 H         1 <0>         0.0662
     20 H2          0.0896   -0.0171   -1.2266 H         1 <0>         0.0767
     21 H3          1.3384    0.2862    1.3272 H         1 <0>         0.0388
     22 H4         -2.0691   -0.1368   -1.3030 H         1 <0>         0.0297
     23 H5         -3.5503    0.4592   -0.6330 H         1 <0>         0.0297
     24 H6         -2.1773    3.5684    0.5573 H         1 <0>         0.0258
     25 H7         -3.1359    2.9513   -0.7942 H         1 <0>         0.0258
     26 H8         -3.5378    2.4853    0.8708 H         1 <0>         0.0258
     27 H9          3.0163   -1.5170    0.3741 H         1 <0>         0.0275
     28 H10         2.0371   -1.4858   -1.0800 H         1 <0>         0.0275
     29 H11        -3.1960   -1.7257    0.2942 H         1 <0>         0.0308
     30 H12        -3.0565   -0.5452    1.5807 H         1 <0>         0.0308
     31 H13         1.1610   -2.2202    1.7663 H         1 <0>         0.0310
     32 H14         1.3999   -3.3376    0.4454 H         1 <0>         0.0310
     33 H15        -0.8269   -1.0647    1.9861 H         1 <0>         0.0572
     34 H16         3.9439    0.8628    1.7839 H         1 <0>         0.0540
     35 H17         4.6556    2.0132    0.5149 H         1 <0>         0.0540
     36 H18        -1.8158   -2.6427   -1.3037 H         1 <0>         0.0274
     37 H19        -0.5737   -3.8599   -1.0309 H         1 <0>         0.0274
     38 H20        -0.1678   -2.3485   -1.8659 H         1 <0>         0.0274
@<TRIPOS>BOND
     1    1    4 1
     2    1    5 1
     3    2    6 1
     4    2   14 1
     5    3   14 2
     6    4    5 1
     7    4    8 1
     8    4    9 1
     9    5    6 1
    10    5   19 1
    11    6    7 1
    12    6   20 1
    13    7   10 1
    14    7   12 1
    15    7   21 1
    16    8   11 1
    17    8   22 1
    18    8   23 1
    19    9   24 1
    20    9   25 1
    21    9   26 1
    22   10   13 1
    23   10   27 1
    24   10   28 1
    25   11   15 1
    26   11   29 1
    27   11   30 1
    28   12   14 1
    29   12   17 2
    30   13   16 1
    31   13   31 1
    32   13   32 1
    33   15   16 2
    34   15   33 1
    35   16   18 1
    36   17   34 1
    37   17   35 1
    38   18   36 1
    39   18   37 1
    40   18   38 1
