@<TRIPOS>MOLECULE
DB13284
   30    31     0     0     0
SMALL
USER_CHARGES

@<TRIPOS>ATOM
      1 S1          2.1185   -1.7712   -0.1674 S.o2      1 <0>        -0.0027
      2 S2         -3.2077   -1.0398   -0.5832 S.o2      1 <0>         0.0563
      3 O1          1.8508   -2.7623    0.8566 O.2       1 <0>        -0.1693
      4 O2          2.3313   -2.1462   -1.5517 O.2       1 <0>        -0.1693
      5 O3         -4.0861   -0.0041   -1.1055 O.2       1 <0>        -0.1532
      6 O4         -3.0546   -2.2940   -1.3050 O.2       1 <0>        -0.1532
      7 N1         -3.6544   -1.3835    1.0292 N.pl3     1 <0>        -0.2035
      8 C1          3.5182   -0.8216    0.3651 C.3       1 <0>         0.0712
      9 C2          3.4946    0.5635   -0.2478 C.3       1 <0>        -0.0291
     10 C3          2.3052    1.3648    0.2725 C.3       1 <0>        -0.0244
     11 C4          0.7654   -0.6434   -0.1605 C.ar      1 <0>         0.0932
     12 C5          0.9615    0.7288    0.0279 C.ar      1 <0>        -0.0222
     13 C6         -0.5104   -1.1833   -0.3499 C.ar      1 <0>        -0.0100
     14 C7         -0.1750    1.5539    0.0431 C.ar      1 <0>        -0.0520
     15 C8         -1.6206   -0.3434   -0.3443 C.ar      1 <0>         0.1097
     16 C9         -1.4540    1.0246   -0.1459 C.ar      1 <0>        -0.0238
     17 C10        -2.6235    1.9543   -0.1260 C.3       1 <0>        -0.0378
     18 H1          4.4154   -1.3703    0.0627 H         1 <0>         0.0504
     19 H2          3.4957   -0.7712    1.4587 H         1 <0>         0.0504
     20 H3          3.4513    0.4959   -1.3419 H         1 <0>         0.0284
     21 H4          4.4208    1.0910    0.0073 H         1 <0>         0.0284
     22 H5          2.3312    2.3518   -0.2063 H         1 <0>         0.0314
     23 H6          2.4153    1.5261    1.3524 H         1 <0>         0.0314
     24 H7         -0.6256   -2.2545   -0.4924 H         1 <0>         0.0656
     25 H8         -0.0508    2.6233    0.2041 H         1 <0>         0.0624
     26 H9         -3.0159    2.1210   -1.1335 H         1 <0>         0.0278
     27 H10        -3.4026    1.6217    0.5665 H         1 <0>         0.0278
     28 H11        -2.3217    2.9423    0.2445 H         1 <0>         0.0278
     29 H12        -4.3894   -0.8051    1.4543 H         1 <0>         0.1442
     30 H13        -3.6830   -2.3694    1.3166 H         1 <0>         0.1442
@<TRIPOS>BOND
     1    1    3 2
     2    1    4 2
     3    1    8 1
     4    1   11 1
     5    2    5 2
     6    2    6 2
     7    2    7 1
     8    2   15 1
     9    7   29 1
    10    7   30 1
    11    8    9 1
    12    8   18 1
    13    8   19 1
    14    9   10 1
    15    9   20 1
    16    9   21 1
    17   10   12 1
    18   10   22 1
    19   10   23 1
    20   11   12 ar
    21   11   13 ar
    22   12   14 ar
    23   13   15 ar
    24   13   24 1
    25   14   16 ar
    26   14   25 1
    27   15   16 ar
    28   16   17 1
    29   17   26 1
    30   17   27 1
    31   17   28 1
