@<TRIPOS>MOLECULE
DB13346
   33    33     0     0     0
SMALL
USER_CHARGES

@<TRIPOS>ATOM
      1 O1         -1.3906    0.6808   -0.8804 O.3       1 <0>        -0.4920
      2 O2          5.1063    1.0318   -1.0928 O.2       1 <0>        -0.2734
      3 O3          6.6597   -1.1777   -0.9926 O.3       1 <0>        -0.2952
      4 N1          5.6924   -0.9230   -0.0115 N.am      1 <0>        -0.1972
      5 C1         -3.6913    0.2792   -0.3523 C.3       1 <0>        -0.0189
      6 C2         -4.7065   -0.7248    0.1860 C.3       1 <0>        -0.0528
      7 C3         -2.2863   -0.3051   -0.3859 C.3       1 <0>         0.0896
      8 C4          2.5336    0.4909    0.4590 C.ar      1 <0>        -0.0383
      9 C5         -0.0949    0.6176   -0.4374 C.ar      1 <0>         0.1205
     10 C6         -6.1008   -0.1231    0.2583 C.3       1 <0>        -0.0652
     11 C7          3.9430    0.4227    0.9407 C.3       1 <0>         0.0511
     12 C8          1.9712    1.7212    0.1190 C.ar      1 <0>        -0.0547
     13 C9          1.7771   -0.6759    0.3493 C.ar      1 <0>        -0.0547
     14 C10         0.6524    1.7847   -0.3308 C.ar      1 <0>        -0.0197
     15 C11         0.4582   -0.6124   -0.1006 C.ar      1 <0>        -0.0197
     16 C12         4.9648    0.2324   -0.1708 C.2       1 <0>         0.2398
     17 H1         -3.9757    0.6042   -1.3609 H         1 <0>         0.0298
     18 H2         -3.6911    1.1863    0.2654 H         1 <0>         0.0298
     19 H3         -4.4089   -1.0570    1.1874 H         1 <0>         0.0264
     20 H4         -4.7291   -1.6125   -0.4570 H         1 <0>         0.0264
     21 H5         -2.0270   -0.6118    0.6361 H         1 <0>         0.0696
     22 H6         -2.2591   -1.1793   -1.0466 H         1 <0>         0.0696
     23 H7         -6.1187    0.7471    0.9223 H         1 <0>         0.0230
     24 H8         -6.4434    0.1930   -0.7321 H         1 <0>         0.0230
     25 H9         -6.8120   -0.8597    0.6448 H         1 <0>         0.0230
     26 H10         4.0361   -0.3716    1.6924 H         1 <0>         0.0408
     27 H11         4.2096    1.3473    1.4693 H         1 <0>         0.0408
     28 H12         2.5503    2.6375    0.1986 H         1 <0>         0.0622
     29 H13         2.2070   -1.6412    0.6037 H         1 <0>         0.0622
     30 H14         0.2181    2.7447   -0.5949 H         1 <0>         0.0654
     31 H15        -0.0866   -1.5462   -0.1992 H         1 <0>         0.0654
     32 H16         5.6860   -1.5357    0.7957 H         1 <0>         0.1822
     33 H17         6.1562   -1.7645   -1.5820 H         1 <0>         0.2414
@<TRIPOS>BOND
     1    1    7 1
     2    1    9 1
     3    2   16 2
     4    3    4 1
     5    3   33 1
     6    4   16 am
     7    4   32 1
     8    5    6 1
     9    5    7 1
    10    5   17 1
    11    5   18 1
    12    6   10 1
    13    6   19 1
    14    6   20 1
    15    7   21 1
    16    7   22 1
    17    8   11 1
    18    8   12 ar
    19    8   13 ar
    20    9   14 ar
    21    9   15 ar
    22   10   23 1
    23   10   24 1
    24   10   25 1
    25   11   16 1
    26   11   26 1
    27   11   27 1
    28   12   14 ar
    29   12   28 1
    30   13   15 ar
    31   13   29 1
    32   14   30 1
    33   15   31 1
