@<TRIPOS>MOLECULE
DB13211
   28    29     0     0     0
SMALL
USER_CHARGES

@<TRIPOS>ATOM
      1 O1          0.4710    0.4777   -0.7159 O.3       1 <0>        -0.4785
      2 O2          1.5850   -1.8397    0.5847 O.3       1 <0>        -0.4845
      3 N1         -2.1146    0.2020    0.3007 N.2       1 <0>        -0.1099
      4 N2         -3.8792    1.2270    1.4060 N.pl3     1 <0>        -0.2893
      5 N3         -4.3610    0.1588   -0.5490 N.pl3     1 <0>        -0.2893
      6 C1         -0.1668   -0.8068   -0.7333 C.3       1 <0>         0.1678
      7 C2          0.1804   -1.5698    0.5382 C.3       1 <0>         0.1296
      8 C3         -1.6666   -0.5778   -0.8497 C.3       1 <0>         0.1446
      9 C4          1.7871    0.3955   -0.3445 C.ar      1 <0>         0.1626
     10 C5          2.3295   -0.7320    0.2758 C.ar      1 <0>         0.1621
     11 C6          2.5909    1.5065   -0.6018 C.ar      1 <0>        -0.0163
     12 C7          3.6862   -0.7668    0.5992 C.ar      1 <0>        -0.0163
     13 C8          3.9445    1.4763   -0.2654 C.ar      1 <0>        -0.0581
     14 C9          4.4925    0.3393    0.3292 C.ar      1 <0>        -0.0581
     15 C10        -3.3781    0.4956    0.3549 C.2       1 <0>         0.3766
     16 H1          0.1876   -1.3503   -1.6195 H         1 <0>         0.0801
     17 H2         -0.0848   -1.0169    1.4481 H         1 <0>         0.0735
     18 H3         -0.3385   -2.5338    0.5654 H         1 <0>         0.0735
     19 H4         -2.1842   -1.5432   -0.8955 H         1 <0>         0.0732
     20 H5         -1.8671   -0.0199   -1.7728 H         1 <0>         0.0732
     21 H6          2.1740    2.3926   -1.0725 H         1 <0>         0.0655
     22 H7          4.1192   -1.6447    1.0706 H         1 <0>         0.0655
     23 H8          4.5736    2.3375   -0.4707 H         1 <0>         0.0619
     24 H9          5.5475    0.3170    0.5863 H         1 <0>         0.0619
     25 H10        -3.2755    1.5488    2.1547 H         1 <0>         0.2546
     26 H11        -4.8632    1.4648    1.4653 H         1 <0>         0.2546
     27 H12        -5.3238    0.4433   -0.4041 H         1 <0>         0.2546
     28 H13        -4.1656   -0.3809   -1.3846 H         1 <0>         0.2546
@<TRIPOS>BOND
     1    1    6 1
     2    1    9 1
     3    2    7 1
     4    2   10 1
     5    3    8 1
     6    3   15 2
     7    4   15 1
     8    4   25 1
     9    4   26 1
    10    5   15 1
    11    5   27 1
    12    5   28 1
    13    6    7 1
    14    6    8 1
    15    6   16 1
    16    7   17 1
    17    7   18 1
    18    8   19 1
    19    8   20 1
    20    9   10 ar
    21    9   11 ar
    22   10   12 ar
    23   11   13 ar
    24   11   21 1
    25   12   14 ar
    26   12   22 1
    27   13   14 ar
    28   13   23 1
    29   14   24 1
