@<TRIPOS>MOLECULE
DB13583
   27    27     0     0     0
SMALL
USER_CHARGES

@<TRIPOS>ATOM
      1 O1          0.3570    0.1132    0.3936 O.3       1 <0>        -0.4891
      2 O2          2.3673   -0.3957   -1.4837 O.3       1 <0>        -0.3861
      3 O3          4.5168   -0.4659    0.2664 O.3       1 <0>        -0.3923
      4 C1          2.5330    0.6372   -0.5094 C.3       1 <0>         0.1120
      5 C2          1.1581    1.1708   -0.1233 C.3       1 <0>         0.1176
      6 C3         -0.9979    0.2335    0.2359 C.ar      1 <0>         0.1235
      7 C4          3.2554    0.0394    0.6908 C.3       1 <0>         0.0733
      8 C5         -1.7980   -0.8979    0.1104 C.ar      1 <0>        -0.0088
      9 C6         -1.5628    1.5049    0.2030 C.ar      1 <0>        -0.0197
     10 C7         -3.1765   -0.7567   -0.0491 C.ar      1 <0>        -0.0554
     11 C8         -1.2036   -2.2672    0.1441 C.3       1 <0>        -0.0362
     12 C9         -2.9413    1.6460    0.0434 C.ar      1 <0>        -0.0583
     13 C10        -3.7481    0.5153   -0.0827 C.ar      1 <0>        -0.0613
     14 H1          3.1415    1.4229   -0.9688 H         1 <0>         0.0650
     15 H2          0.7100    1.5871   -1.0354 H         1 <0>         0.0723
     16 H3          1.2600    1.9585    0.6319 H         1 <0>         0.0723
     17 H4          2.7039   -0.7976    1.1315 H         1 <0>         0.0584
     18 H5          3.4294    0.7925    1.4650 H         1 <0>         0.0584
     19 H6         -0.9786    2.4114    0.3268 H         1 <0>         0.0654
     20 H7         -3.8194   -1.6273   -0.1486 H         1 <0>         0.0621
     21 H8         -1.9660   -3.0474    0.0469 H         1 <0>         0.0279
     22 H9         -0.4948   -2.3935   -0.6810 H         1 <0>         0.0279
     23 H10        -0.6825   -2.4324    1.0930 H         1 <0>         0.0279
     24 H11        -3.3879    2.6359    0.0241 H         1 <0>         0.0619
     25 H12        -4.8217    0.6254   -0.2053 H         1 <0>         0.0618
     26 H13         1.7994   -1.0832   -1.0951 H         1 <0>         0.2100
     27 H14         4.3476   -1.1290   -0.4246 H         1 <0>         0.2095
@<TRIPOS>BOND
     1    1    5 1
     2    1    6 1
     3    2    4 1
     4    2   26 1
     5    3    7 1
     6    3   27 1
     7    4    5 1
     8    4    7 1
     9    4   14 1
    10    5   15 1
    11    5   16 1
    12    6    8 ar
    13    6    9 ar
    14    7   17 1
    15    7   18 1
    16    8   10 ar
    17    8   11 1
    18    9   12 ar
    19    9   19 1
    20   10   13 ar
    21   10   20 1
    22   11   21 1
    23   11   22 1
    24   11   23 1
    25   12   13 ar
    26   12   24 1
    27   13   25 1
