@<TRIPOS>MOLECULE
DB13154
   13    13     0     0     0
SMALL
USER_CHARGES

@<TRIPOS>ATOM
      1 Cl1        -3.2763   -0.5707    0.0006 Cl        1 <0>        -0.0835
      2 O1          2.4852    0.5603    0.0008 O.3       1 <0>        -0.5068
      3 C1          1.1497    0.2982   -0.0008 C.ar      1 <0>         0.1169
      4 C2          0.2327    1.3492   -0.0006 C.ar      1 <0>        -0.0188
      5 C3          0.6982   -1.0216   -0.0006 C.ar      1 <0>        -0.0188
      6 C4         -1.1361    1.0804    0.0000 C.ar      1 <0>        -0.0399
      7 C5         -0.6707   -1.2903   -0.0002 C.ar      1 <0>        -0.0399
      8 C6         -1.5877   -0.2393    0.0001 C.ar      1 <0>         0.0412
      9 H1          0.5785    2.3793   -0.0004 H         1 <0>         0.0654
     10 H2          1.4024   -1.8492   -0.0004 H         1 <0>         0.0654
     11 H3         -1.8391    1.9094    0.0003 H         1 <0>         0.0633
     12 H4         -1.0082   -2.3235    0.0000 H         1 <0>         0.0633
     13 H5          2.9716   -0.2820    0.0010 H         1 <0>         0.2921
@<TRIPOS>BOND
     1    1    8 1
     2    2    3 1
     3    2   13 1
     4    3    4 ar
     5    3    5 ar
     6    4    6 ar
     7    4    9 1
     8    5    7 ar
     9    5   10 1
    10    6    8 ar
    11    6   11 1
    12    7    8 ar
    13    7   12 1
