@<TRIPOS>MOLECULE
DB13682
   57    61     0     0     0
SMALL
USER_CHARGES

@<TRIPOS>ATOM
      1 S1          0.3925    0.5658   -1.2180 S.3       1 <0>        -0.1309
      2 S2          5.0721   -3.4218    1.3055 S.3       1 <0>        -0.0604
      3 O1          1.9264    1.4439    3.0837 O.2       1 <0>        -0.2731
      4 O2         -0.5315   -0.9461    3.5090 O.co2     1 <0>        -0.5433
      5 O3         -1.7477    0.9773    3.7424 O.co2     1 <0>        -0.5433
      6 O4          4.7739    1.7367    1.6251 O.2       1 <0>        -0.2683
      7 O5          5.8414    2.0744   -1.2729 O.3       1 <0>        -0.3964
      8 N1          0.3409    1.1845    1.3605 N.am      1 <0>        -0.2532
      9 N2         -4.0453    0.0611    0.4229 N.ar      1 <0>        -0.1969
     10 N3          3.1121    1.2215    0.0492 N.am      1 <0>        -0.2963
     11 N4          6.0540    0.7045   -1.0640 N.2       1 <0>        -0.0779
     12 N5          6.2817   -1.9717   -0.4600 N.2       1 <0>        -0.2233
     13 N6          6.9116   -4.2505   -0.4270 N.pl3     1 <0>        -0.3375
     14 C1          0.5937    1.8100    0.0772 C.3       1 <0>         0.1041
     15 C2          2.0330    2.0483    0.5874 C.3       1 <0>         0.1286
     16 C3          1.4931    1.5501    1.9605 C.2       1 <0>         0.2438
     17 C4         -1.6255    0.0643    0.6918 C.2       1 <0>         0.0277
     18 C5         -0.7800    0.4812    1.6623 C.2       1 <0>         0.0658
     19 C6         -1.3570    0.2527   -0.7991 C.3       1 <0>         0.0246
     20 C7         -2.9057   -0.7006    0.9344 C.3       1 <0>         0.1750
     21 C8         -4.9892   -0.5403   -0.2992 C.ar      1 <0>         0.1873
     22 C9         -5.0119   -1.9785   -0.6951 C.3       1 <0>         0.0331
     23 C10        -6.0698    0.1655   -0.8068 C.ar      1 <0>         0.0195
     24 C11        -6.4835   -2.1208   -1.1210 C.3       1 <0>        -0.0393
     25 C12        -6.9505   -0.7347   -1.6087 C.3       1 <0>        -0.0213
     26 C13        -4.1177    1.3758    0.6883 C.ar      1 <0>         0.1718
     27 C14        -1.0475    0.1349    3.1227 C.2       1 <0>         0.0861
     28 C15        -6.1768    1.5207   -0.5682 C.ar      1 <0>        -0.0471
     29 C16         4.3668    1.1581    0.6307 C.2       1 <0>         0.2684
     30 C17        -5.1845    2.1340    0.1982 C.ar      1 <0>         0.0024
     31 C18         5.3110    0.2420   -0.1042 C.2       1 <0>         0.1897
     32 C19         5.4109   -1.1811    0.2347 C.2       1 <0>         0.1067
     33 C20         4.6677   -1.7572    1.2205 C.2       1 <0>         0.0067
     34 C21         6.1889   -3.1907    0.0231 C.2       1 <0>         0.1562
     35 C22         6.6874    2.4952   -2.3318 C.3       1 <0>         0.1072
     36 H1          0.0161    2.7302   -0.0701 H         1 <0>         0.0644
     37 H2          2.3134    3.1083    0.5997 H         1 <0>         0.0622
     38 H3         -1.6407   -0.6514   -1.3484 H         1 <0>         0.0425
     39 H4         -1.9560    1.0817   -1.1893 H         1 <0>         0.0425
     40 H5         -3.1194   -0.8804    1.9930 H         1 <0>         0.1083
     41 H6         -2.8282   -1.6738    0.4437 H         1 <0>         0.1083
     42 H7         -4.3377   -2.1519   -1.5396 H         1 <0>         0.0372
     43 H8         -4.7839   -2.6620    0.1266 H         1 <0>         0.0372
     44 H9          2.9503    0.6672   -0.7884 H         1 <0>         0.1499
     45 H10        -7.0829   -2.4111   -0.2465 H         1 <0>         0.0273
     46 H11        -6.6253   -2.8980   -1.8786 H         1 <0>         0.0273
     47 H12        -6.7510   -0.6055   -2.6774 H         1 <0>         0.0315
     48 H13        -8.0126   -0.5771   -1.4019 H         1 <0>         0.0315
     49 H14        -3.3571    1.8292    1.3118 H         1 <0>         0.1376
     50 H15        -7.0063    2.0979   -0.9615 H         1 <0>         0.0624
     51 H16        -5.2423    3.1959    0.4168 H         1 <0>         0.0677
     52 H17         3.9304   -1.3268    1.8834 H         1 <0>         0.0716
     53 H18         6.4442    1.9540   -3.2515 H         1 <0>         0.0687
     54 H19         6.5263    3.5633   -2.5002 H         1 <0>         0.0687
     55 H20         7.7372    2.3356   -2.0668 H         1 <0>         0.0687
     56 H21         6.8088   -5.1767   -0.0257 H         1 <0>         0.1442
     57 H22         7.5819   -4.1576   -1.1831 H         1 <0>         0.1442
@<TRIPOS>BOND
     1    1   14 1
     2    1   19 1
     3    2   33 1
     4    2   34 1
     5    3   16 2
     6    4   27 2
     7    5   27 1
     8    6   29 2
     9    7   11 1
    10    7   35 1
    11    8   14 1
    12    8   16 am
    13    8   18 1
    14    9   20 1
    15    9   21 ar
    16    9   26 ar
    17   10   15 1
    18   10   29 am
    19   10   44 1
    20   11   31 2
    21   12   32 1
    22   12   34 2
    23   13   34 1
    24   13   56 1
    25   13   57 1
    26   14   15 1
    27   14   36 1
    28   15   16 1
    29   15   37 1
    30   17   18 2
    31   17   19 1
    32   17   20 1
    33   18   27 1
    34   19   38 1
    35   19   39 1
    36   20   40 1
    37   20   41 1
    38   21   22 1
    39   21   23 ar
    40   22   24 1
    41   22   42 1
    42   22   43 1
    43   23   25 1
    44   23   28 ar
    45   24   25 1
    46   24   45 1
    47   24   46 1
    48   25   47 1
    49   25   48 1
    50   26   30 ar
    51   26   49 1
    52   28   30 ar
    53   28   50 1
    54   29   31 1
    55   30   51 1
    56   31   32 1
    57   32   33 2
    58   33   52 1
    59   35   53 1
    60   35   54 1
    61   35   55 1
