@<TRIPOS>MOLECULE
DB13323
    6     5     0     0     0
SMALL
USER_CHARGES

@<TRIPOS>ATOM
      1 Cl1         1.9979    0.9277    0.0000 Cl        1 <0>        -0.0696
      2 Cl2         0.9389   -1.8244   -0.0002 Cl        1 <0>        -0.0696
      3 Cl3        -2.0364   -0.6686    0.0001 Cl        1 <0>        -0.0896
      4 C1          0.6271   -0.1222    0.0002 C.2       1 <0>         0.1176
      5 C2         -0.6339    0.3181   -0.0000 C.2       1 <0>         0.0342
      6 H1         -0.8936    1.3694   -0.0002 H         1 <0>         0.0770
@<TRIPOS>BOND
     1    1    4 1
     2    2    4 1
     3    3    5 1
     4    4    5 2
     5    5    6 1
