@<TRIPOS>MOLECULE
DB13858
   43    44     0     0     0
SMALL
USER_CHARGES

@<TRIPOS>ATOM
      1 S1          4.4032   -1.5322   -0.4757 S.3       1 <0>        -0.0521
      2 O1         -0.7708   -0.9883   -0.2148 O.3       1 <0>        -0.4907
      3 N1         -4.2924    0.0204    0.1678 N.3       1 <0>        -0.2996
      4 N2          6.5468   -0.0342   -0.0169 N.pl3     1 <0>        -0.3157
      5 N3          4.4135    0.9182    0.3291 N.2       1 <0>        -0.2248
      6 C1         -3.1606   -0.8371   -0.1506 C.3       1 <0>         0.0331
      7 C2         -5.5557   -0.6955   -0.0263 C.3       1 <0>        -0.0038
      8 C3         -4.2691    1.2350   -0.6511 C.3       1 <0>        -0.0038
      9 C4         -1.8491   -0.1074    0.0926 C.3       1 <0>         0.1022
     10 C5         -5.6116   -1.9584    0.8082 C.3       1 <0>        -0.0524
     11 C6         -5.4015    2.1723   -0.2859 C.3       1 <0>        -0.0524
     12 C7          0.4916   -0.4941   -0.0727 C.ar      1 <0>         0.1217
     13 C8          2.8762   -0.7792   -0.2045 C.ar      1 <0>         0.0442
     14 C9          3.0842    0.5352    0.2245 C.ar      1 <0>         0.0805
     15 C10         1.5867   -1.3132   -0.3596 C.ar      1 <0>        -0.0041
     16 C11         0.6736    0.8161    0.3558 C.ar      1 <0>        -0.0179
     17 C12         1.9602    1.3413    0.5079 C.ar      1 <0>        -0.0317
     18 C13         5.1882   -0.0850   -0.0122 C.2       1 <0>         0.1613
     19 C14         7.2915    1.1747    0.3679 C.3       1 <0>         0.0021
     20 C15         7.3778   -1.1857   -0.4006 C.3       1 <0>         0.0021
     21 H1         -3.1975   -1.2004   -1.1868 H         1 <0>         0.0460
     22 H2         -3.1298   -1.7288    0.4853 H         1 <0>         0.0460
     23 H3         -6.3989   -0.0822    0.3081 H         1 <0>         0.0424
     24 H4         -5.7255   -0.9444   -1.0815 H         1 <0>         0.0424
     25 H5         -3.3688    1.8249   -0.4614 H         1 <0>         0.0424
     26 H6         -4.3003    1.0084   -1.7242 H         1 <0>         0.0424
     27 H7         -1.8017    0.2057    1.1435 H         1 <0>         0.0709
     28 H8         -1.7603    0.7454   -0.5851 H         1 <0>         0.0709
     29 H9         -4.9936   -2.7619    0.3956 H         1 <0>         0.0242
     30 H10        -5.3133   -1.7753    1.8462 H         1 <0>         0.0242
     31 H11        -6.6392   -2.3390    0.8288 H         1 <0>         0.0242
     32 H12        -6.3697    1.8257   -0.6601 H         1 <0>         0.0242
     33 H13        -5.4723    2.3231    0.7968 H         1 <0>         0.0242
     34 H14        -5.2280    3.1548   -0.7400 H         1 <0>         0.0242
     35 H15         1.4423   -2.3365   -0.6937 H         1 <0>         0.0666
     36 H16        -0.1360    1.4969    0.5963 H         1 <0>         0.0655
     37 H17         2.0925    2.3661    0.8439 H         1 <0>         0.0640
     38 H18         6.6409    2.0476    0.4844 H         1 <0>         0.0428
     39 H19         8.0354    1.4203   -0.3975 H         1 <0>         0.0428
     40 H20         7.8077    1.0048    1.3184 H         1 <0>         0.0428
     41 H21         7.1948   -1.4717   -1.4420 H         1 <0>         0.0428
     42 H22         7.1945   -2.0409    0.2591 H         1 <0>         0.0428
     43 H23         8.4441   -0.9454   -0.3174 H         1 <0>         0.0428
@<TRIPOS>BOND
     1    1   13 1
     2    1   18 1
     3    2    9 1
     4    2   12 1
     5    3    6 1
     6    3    7 1
     7    3    8 1
     8    4   18 1
     9    4   19 1
    10    4   20 1
    11    5   14 1
    12    5   18 2
    13    6    9 1
    14    6   21 1
    15    6   22 1
    16    7   10 1
    17    7   23 1
    18    7   24 1
    19    8   11 1
    20    8   25 1
    21    8   26 1
    22    9   27 1
    23    9   28 1
    24   10   29 1
    25   10   30 1
    26   10   31 1
    27   11   32 1
    28   11   33 1
    29   11   34 1
    30   12   15 ar
    31   12   16 ar
    32   13   14 ar
    33   13   15 ar
    34   14   17 ar
    35   15   35 1
    36   16   17 ar
    37   16   36 1
    38   17   37 1
    39   19   38 1
    40   19   39 1
    41   19   40 1
    42   20   41 1
    43   20   42 1
    44   20   43 1
