@<TRIPOS>MOLECULE
DB13781
   49    50     0     0     0
SMALL
USER_CHARGES

@<TRIPOS>ATOM
      1 O1         -4.5131    0.0071    0.8247 O.3       1 <0>        -0.3767
      2 O2          5.2089    1.0452   -0.1402 O.3       1 <0>        -0.3872
      3 O3          2.5909    1.9638   -0.3250 O.3       1 <0>        -0.4894
      4 O4         -1.2141   -2.6709   -1.7106 O.2       1 <0>        -0.2526
      5 O5         -2.6969    3.5446   -0.4197 O.3       1 <0>        -0.5068
      6 N1         -2.1778   -1.2535   -0.1477 N.am      1 <0>        -0.2813
      7 N2         -0.1709   -2.4131    0.3165 N.am      1 <0>        -0.2980
      8 N3          2.5628   -1.5135    0.2595 N.3       1 <0>        -0.3119
      9 C1         -3.2866   -0.9138   -1.0424 C.3       1 <0>         0.0396
     10 C2         -2.1468   -0.4770    1.0998 C.3       1 <0>         0.0396
     11 C3         -4.6065   -0.8840   -0.2881 C.3       1 <0>         0.0635
     12 C4         -3.5248   -0.4433    1.7520 C.3       1 <0>         0.0635
     13 C5         -1.1907   -2.1501   -0.5904 C.2       1 <0>         0.3024
     14 C6          2.0822   -2.5612   -0.6323 C.3       1 <0>         0.0116
     15 C7          0.9213   -3.3085    0.0073 C.3       1 <0>         0.0256
     16 C8          3.6681   -0.7825   -0.3446 C.3       1 <0>         0.0252
     17 C9          4.1549    0.3633    0.5457 C.3       1 <0>         0.1015
     18 C10         3.0608    1.3739    0.8832 C.3       1 <0>         0.1166
     19 C11         1.2793    2.3562   -0.3485 C.ar      1 <0>         0.1209
     20 C12         0.6530    2.7671    0.8282 C.ar      1 <0>        -0.0165
     21 C13         0.5693    2.3447   -1.5491 C.ar      1 <0>        -0.0165
     22 C14        -0.6831    3.1667    0.8041 C.ar      1 <0>        -0.0167
     23 C15        -0.7668    2.7442   -1.5731 C.ar      1 <0>        -0.0167
     24 C16        -1.3931    3.1554   -0.3965 C.ar      1 <0>         0.1171
     25 H1         -3.0613    0.0806   -1.4461 H         1 <0>         0.0488
     26 H2         -3.3463   -1.6126   -1.8820 H         1 <0>         0.0488
     27 H3         -1.4219   -0.8435    1.8243 H         1 <0>         0.0488
     28 H4         -1.8497    0.5343    0.8132 H         1 <0>         0.0488
     29 H5         -4.8888   -1.8822    0.0670 H         1 <0>         0.0575
     30 H6         -5.4057   -0.5226   -0.9426 H         1 <0>         0.0575
     31 H7         -3.5198    0.2489    2.6000 H         1 <0>         0.0575
     32 H8         -3.8083   -1.4327    2.1305 H         1 <0>         0.0575
     33 H9          2.8850   -3.2745   -0.8534 H         1 <0>         0.0439
     34 H10         1.7508   -2.1216   -1.5809 H         1 <0>         0.0439
     35 H11         1.2304   -3.7817    0.9461 H         1 <0>         0.0475
     36 H12         0.5687   -4.0983   -0.6648 H         1 <0>         0.0475
     37 H13         3.3718   -0.3814   -1.3228 H         1 <0>         0.0450
     38 H14         4.5122   -1.4568   -0.5400 H         1 <0>         0.0450
     39 H15         4.5762   -0.0391    1.4738 H         1 <0>         0.0640
     40 H16        -0.1392   -1.9734    1.2248 H         1 <0>         0.1503
     41 H17         2.8597   -1.9189    1.1465 H         1 <0>         0.1221
     42 H18         2.2680    0.8645    1.4444 H         1 <0>         0.0723
     43 H19         3.4844    2.1732    1.5029 H         1 <0>         0.0723
     44 H20         4.8307    1.4445   -0.9424 H         1 <0>         0.2100
     45 H21         1.1770    2.8202    1.7779 H         1 <0>         0.0655
     46 H22         1.0519    2.0238   -2.4683 H         1 <0>         0.0655
     47 H23        -1.1647    3.4911    1.7226 H         1 <0>         0.0655
     48 H24        -1.3093    2.7291   -2.5146 H         1 <0>         0.0655
     49 H25        -3.0323    3.4681   -1.3295 H         1 <0>         0.2921
@<TRIPOS>BOND
     1    1   11 1
     2    1   12 1
     3    2   17 1
     4    2   44 1
     5    3   18 1
     6    3   19 1
     7    4   13 2
     8    5   24 1
     9    5   49 1
    10    6    9 1
    11    6   10 1
    12    6   13 am
    13    7   13 am
    14    7   15 1
    15    7   40 1
    16    8   14 1
    17    8   16 1
    18    8   41 1
    19    9   11 1
    20    9   25 1
    21    9   26 1
    22   10   12 1
    23   10   27 1
    24   10   28 1
    25   11   29 1
    26   11   30 1
    27   12   31 1
    28   12   32 1
    29   14   15 1
    30   14   33 1
    31   14   34 1
    32   15   35 1
    33   15   36 1
    34   16   17 1
    35   16   37 1
    36   16   38 1
    37   17   18 1
    38   17   39 1
    39   18   42 1
    40   18   43 1
    41   19   20 ar
    42   19   21 ar
    43   20   22 ar
    44   20   45 1
    45   21   23 ar
    46   21   46 1
    47   22   24 ar
    48   22   47 1
    49   23   24 ar
    50   23   48 1
