@<TRIPOS>MOLECULE
DB13292
   40    43     0     0     0
SMALL
USER_CHARGES

@<TRIPOS>ATOM
      1 S1         -3.0309   -0.1238    1.7412 S.3       1 <0>        -0.0882
      2 N1          3.0350   -0.0032    0.7781 N.3       1 <0>        -0.3047
      3 C1          0.5921    0.0333   -0.5306 C.2       1 <0>        -0.0588
      4 C2          1.4487   -1.1979   -0.6829 C.3       1 <0>        -0.0180
      5 C3          1.3418    1.3345   -0.5499 C.3       1 <0>        -0.0180
      6 C4          2.9255   -0.9236   -0.3553 C.3       1 <0>         0.0023
      7 C5          2.5048    1.3329    0.4577 C.3       1 <0>         0.0023
      8 C6         -0.7329   -0.0380   -0.3412 C.2       1 <0>        -0.0093
      9 C7         -1.5119    1.2215   -0.1995 C.ar      1 <0>        -0.0036
     10 C8         -1.3648   -1.3702   -0.1439 C.ar      1 <0>        -0.0036
     11 C9          4.4046    0.0816    1.2761 C.3       1 <0>        -0.0127
     12 C10        -2.5819    1.2718    0.7140 C.ar      1 <0>         0.0205
     13 C11        -2.4244   -1.5022    0.7737 C.ar      1 <0>         0.0205
     14 C12        -1.2420    2.3543   -0.9877 C.ar      1 <0>        -0.0530
     15 C13        -0.9667   -2.4977   -0.8836 C.ar      1 <0>        -0.0530
     16 C14        -3.3282    2.4517    0.8534 C.ar      1 <0>        -0.0474
     17 C15        -3.0327   -2.7519    0.9653 C.ar      1 <0>        -0.0474
     18 C16        -1.9950    3.5209   -0.8461 C.ar      1 <0>        -0.0611
     19 C17        -1.5832   -3.7349   -0.6906 C.ar      1 <0>        -0.0611
     20 C18        -3.0336    3.5711    0.0771 C.ar      1 <0>        -0.0607
     21 C19        -2.6116   -3.8629    0.2365 C.ar      1 <0>        -0.0607
     22 H1          1.1677   -1.9874    0.0209 H         1 <0>         0.0323
     23 H2          1.4445   -1.5499   -1.7192 H         1 <0>         0.0323
     24 H3          1.7406    1.4869   -1.5615 H         1 <0>         0.0323
     25 H4          0.8241    2.2416   -0.2593 H         1 <0>         0.0323
     26 H5          3.4092   -1.8819   -0.1268 H         1 <0>         0.0429
     27 H6          3.4406   -0.5137   -1.2350 H         1 <0>         0.0429
     28 H7          3.2918    1.9843    0.0535 H         1 <0>         0.0429
     29 H8          2.1714    1.7903    1.3983 H         1 <0>         0.0429
     30 H9          5.0982    0.4554    0.5144 H         1 <0>         0.0391
     31 H10         4.7552   -0.9021    1.6073 H         1 <0>         0.0391
     32 H11         4.4572    0.7438    2.1475 H         1 <0>         0.0391
     33 H12        -0.5327    2.3321   -1.8121 H         1 <0>         0.0624
     34 H13        -0.2923   -2.4470   -1.7288 H         1 <0>         0.0624
     35 H14        -4.1515    2.5113    1.5619 H         1 <0>         0.0629
     36 H15        -3.8459   -2.8740    1.6776 H         1 <0>         0.0629
     37 H16        -1.7881    4.3800   -1.4776 H         1 <0>         0.0618
     38 H17        -1.2837   -4.5900   -1.2897 H         1 <0>         0.0618
     39 H18        -3.6231    4.4769    0.1842 H         1 <0>         0.0618
     40 H19        -3.0959   -4.8239    0.3826 H         1 <0>         0.0618
@<TRIPOS>BOND
     1    1   12 1
     2    1   13 1
     3    2    6 1
     4    2    7 1
     5    2   11 1
     6    3    4 1
     7    3    5 1
     8    3    8 2
     9    4    6 1
    10    4   22 1
    11    4   23 1
    12    5    7 1
    13    5   24 1
    14    5   25 1
    15    6   26 1
    16    6   27 1
    17    7   28 1
    18    7   29 1
    19    8    9 1
    20    8   10 1
    21    9   12 ar
    22    9   14 ar
    23   10   13 ar
    24   10   15 ar
    25   11   30 1
    26   11   31 1
    27   11   32 1
    28   12   16 ar
    29   13   17 ar
    30   14   18 ar
    31   14   33 1
    32   15   19 ar
    33   15   34 1
    34   16   20 ar
    35   16   35 1
    36   17   21 ar
    37   17   36 1
    38   18   20 ar
    39   18   37 1
    40   19   21 ar
    41   19   38 1
    42   20   39 1
    43   21   40 1
