@<TRIPOS>MOLECULE
DB13139
   38    38     0     0     0
SMALL
USER_CHARGES

@<TRIPOS>ATOM
      1 O1          0.0072    0.8029   -2.3022 O.3       1 <0>        -0.3859
      2 O2          5.2974    0.6353    1.0032 O.3       1 <0>        -0.5064
      3 O3          4.5836   -1.9899   -1.0553 O.3       1 <0>        -0.3903
      4 N1         -2.3178    0.5302   -0.6276 N.3       1 <0>        -0.3086
      5 C1         -3.2640   -0.2693    0.1576 C.3       1 <0>         0.0108
      6 C2         -0.9664    0.3681   -0.1186 C.3       1 <0>         0.0266
      7 C3          0.0274    1.2051   -0.9331 C.3       1 <0>         0.0926
      8 C4         -4.6684   -0.0737   -0.4231 C.3       1 <0>        -0.0473
      9 C5         -2.8554   -1.7430    0.0609 C.3       1 <0>        -0.0473
     10 C6         -3.2292    0.1925    1.6193 C.3       1 <0>        -0.0473
     11 C7          1.4401    1.0474   -0.4149 C.ar      1 <0>        -0.0174
     12 C8          2.0039   -0.2158   -0.3625 C.ar      1 <0>        -0.0472
     13 C9          2.1381    2.1698   -0.0041 C.ar      1 <0>        -0.0526
     14 C10         3.3063   -0.3608    0.1155 C.ar      1 <0>         0.0195
     15 C11         4.0245    0.7593    0.5337 C.ar      1 <0>         0.1222
     16 C12         3.4405    2.0246    0.4738 C.ar      1 <0>        -0.0195
     17 C13         3.9164   -1.7222    0.1714 C.3       1 <0>         0.0727
     18 H1         -0.8677    0.6828    0.9251 H         1 <0>         0.0453
     19 H2         -0.6583   -0.6764   -0.1991 H         1 <0>         0.0453
     20 H3         -2.5819    1.5147   -0.5943 H         1 <0>         0.1225
     21 H4         -0.2674    2.2617   -0.9030 H         1 <0>         0.0656
     22 H5         -4.9792    0.9765   -0.3734 H         1 <0>         0.0247
     23 H6         -5.4106   -0.6632    0.1272 H         1 <0>         0.0247
     24 H7         -4.7124   -0.3854   -1.4734 H         1 <0>         0.0247
     25 H8         -1.9797   -1.9980    0.6673 H         1 <0>         0.0247
     26 H9         -2.6646   -2.0457   -0.9757 H         1 <0>         0.0247
     27 H10        -3.6664   -2.3831    0.4309 H         1 <0>         0.0247
     28 H11        -2.3293   -0.1223    2.1578 H         1 <0>         0.0247
     29 H12        -4.0731   -0.2405    2.1713 H         1 <0>         0.0247
     30 H13        -3.3221    1.2817    1.7038 H         1 <0>         0.0247
     31 H14         1.4589   -1.0905   -0.7058 H         1 <0>         0.0626
     32 H15         1.6942    3.1601   -0.0458 H         1 <0>         0.0622
     33 H16        -0.9127    0.8699   -2.6107 H         1 <0>         0.2103
     34 H17         3.9946    2.9014    0.7980 H         1 <0>         0.0654
     35 H18         4.6110   -1.8456    1.0084 H         1 <0>         0.0608
     36 H19         3.1370   -2.4817    0.3073 H         1 <0>         0.0608
     37 H20         5.6964   -0.1884    0.6809 H         1 <0>         0.2921
     38 H21         4.9492   -2.8887   -0.9908 H         1 <0>         0.2098
@<TRIPOS>BOND
     1    1    7 1
     2    1   33 1
     3    2   15 1
     4    2   37 1
     5    3   17 1
     6    3   38 1
     7    4    5 1
     8    4    6 1
     9    4   20 1
    10    5    8 1
    11    5    9 1
    12    5   10 1
    13    6    7 1
    14    6   18 1
    15    6   19 1
    16    7   11 1
    17    7   21 1
    18    8   22 1
    19    8   23 1
    20    8   24 1
    21    9   25 1
    22    9   26 1
    23    9   27 1
    24   10   28 1
    25   10   29 1
    26   10   30 1
    27   11   12 ar
    28   11   13 ar
    29   12   14 ar
    30   12   31 1
    31   13   16 ar
    32   13   32 1
    33   14   15 ar
    34   14   17 1
    35   15   16 ar
    36   16   34 1
    37   17   35 1
    38   17   36 1
