@<TRIPOS>MOLECULE
DB13711
   68    72     0     0     0
SMALL
USER_CHARGES

@<TRIPOS>ATOM
      1 O1         -1.1605    1.7929    1.1922 O.3       1 <0>        -0.4509
      2 O2         -3.3987   -1.5307    1.3027 O.3       1 <0>        -0.4910
      3 O3         -6.0987   -0.7492    1.6845 O.3       1 <0>        -0.4489
      4 O4         -7.1075    1.1305    0.5649 O.3       1 <0>        -0.4525
      5 O5          1.0527   -1.8149    0.0726 O.3       1 <0>        -0.4880
      6 O6          3.7387   -1.2026   -0.1941 O.3       1 <0>        -0.4854
      7 O7         -0.0254    3.7837    1.4643 O.2       1 <0>        -0.2449
      8 O8          4.6312    1.3612    0.2433 O.3       1 <0>        -0.4867
      9 N1         -1.0409    0.6703   -1.5759 N.3       1 <0>        -0.2946
     10 N2          2.8532    3.4040    0.9620 N.pl3     1 <0>        -0.3544
     11 C1         -1.6527    0.0433   -0.3839 C.3       1 <0>         0.0809
     12 C2         -0.8393    0.4230    0.8641 C.3       1 <0>         0.1523
     13 C3         -3.1237    0.3711   -0.1773 C.ar      1 <0>         0.0223
     14 C4         -1.4205    2.0821   -1.7075 C.3       1 <0>         0.0033
     15 C5         -3.7197    1.4804   -0.8298 C.ar      1 <0>        -0.0342
     16 C6         -2.9301    2.3063   -1.8125 C.3       1 <0>        -0.0143
     17 C7          0.6103    0.4626    0.6300 C.ar      1 <0>         0.0559
     18 C8         -3.8929   -0.4225    0.6927 C.ar      1 <0>         0.1704
     19 C9          1.0723    1.7446    0.8527 C.ar      1 <0>         0.0936
     20 C10        -1.3113   -0.0895   -2.7968 C.3       1 <0>        -0.0120
     21 C11        -5.0750    1.7819   -0.6181 C.ar      1 <0>        -0.0124
     22 C12         1.4908   -0.5452    0.2777 C.ar      1 <0>         0.1732
     23 C13        -5.2186   -0.0911    0.8818 C.ar      1 <0>         0.2079
     24 C14        -0.0515    2.5970    1.2062 C.2       1 <0>         0.3422
     25 C15        -5.7931    0.9813    0.2448 C.ar      1 <0>         0.1702
     26 C16         2.4058    2.0906    0.7341 C.ar      1 <0>         0.0853
     27 C17         2.8467   -0.2280    0.1495 C.ar      1 <0>         0.2061
     28 C18         3.3011    1.0821    0.3760 C.ar      1 <0>         0.1870
     29 C19        -7.2941    0.0310    1.4792 C.3       1 <0>         0.2334
     30 C20        -3.5412   -2.7716    0.6119 C.3       1 <0>         0.0790
     31 C21         1.0320   -2.6877    1.2024 C.3       1 <0>         0.0870
     32 C22         3.9813   -1.3942   -1.5851 C.3       1 <0>         0.0871
     33 C23         5.4395    1.2173    1.4076 C.3       1 <0>         0.0870
     34 C24         0.5026   -4.0391    0.7719 C.3       1 <0>        -0.0307
     35 C25         5.0015   -2.4988   -1.7602 C.3       1 <0>        -0.0307
     36 C26         6.8732    1.5546    1.0575 C.3       1 <0>        -0.0307
     37 H1         -1.5467   -1.0416   -0.5099 H         1 <0>         0.0554
     38 H2         -1.0890   -0.1926    1.7348 H         1 <0>         0.0806
     39 H3         -0.9509    2.4909   -2.6131 H         1 <0>         0.0430
     40 H4         -1.0162    2.7172   -0.9280 H         1 <0>         0.0430
     41 H5         -3.2734    2.0550   -2.8238 H         1 <0>         0.0326
     42 H6         -3.1394    3.3708   -1.6514 H         1 <0>         0.0326
     43 H7         -2.3796   -0.1895   -3.0149 H         1 <0>         0.0391
     44 H8         -0.8259    0.3802   -3.6594 H         1 <0>         0.0391
     45 H9         -0.8870   -1.0968   -2.7174 H         1 <0>         0.0391
     46 H10        -5.5477    2.6182   -1.1228 H         1 <0>         0.0658
     47 H11        -7.6233    0.4298    2.4456 H         1 <0>         0.1166
     48 H12        -8.0779   -0.6253    1.0838 H         1 <0>         0.1166
     49 H13         3.8326    3.6300    0.8506 H         1 <0>         0.1424
     50 H14         2.1979    4.1298    1.2189 H         1 <0>         0.1424
     51 H15        -4.5917   -3.0785    0.6028 H         1 <0>         0.0660
     52 H16        -3.1659   -2.7040   -0.4138 H         1 <0>         0.0660
     53 H17        -2.9624   -3.5286    1.1479 H         1 <0>         0.0660
     54 H18         2.0454   -2.7978    1.6049 H         1 <0>         0.0694
     55 H19         0.3854   -2.2702    1.9826 H         1 <0>         0.0694
     56 H20         4.3616   -0.4669   -2.0285 H         1 <0>         0.0694
     57 H21         3.0484   -1.6697   -2.0904 H         1 <0>         0.0694
     58 H22         5.3837    0.1859    1.7744 H         1 <0>         0.0694
     59 H23         5.0844    1.8898    2.1968 H         1 <0>         0.0694
     60 H24         0.4605   -4.7307    1.6178 H         1 <0>         0.0262
     61 H25         1.1401   -4.4709   -0.0066 H         1 <0>         0.0262
     62 H26        -0.4998   -3.9416    0.3430 H         1 <0>         0.0262
     63 H27         5.9368   -2.2431   -1.2514 H         1 <0>         0.0262
     64 H28         4.6403   -3.4309   -1.3131 H         1 <0>         0.0262
     65 H29         5.2116   -2.6732   -2.8191 H         1 <0>         0.0262
     66 H30         7.5235    1.4525    1.9307 H         1 <0>         0.0262
     67 H31         6.9465    2.5797    0.6798 H         1 <0>         0.0262
     68 H32         7.2408    0.8957    0.2638 H         1 <0>         0.0262
@<TRIPOS>BOND
     1    1   12 1
     2    1   24 1
     3    2   18 1
     4    2   30 1
     5    3   23 1
     6    3   29 1
     7    4   25 1
     8    4   29 1
     9    5   22 1
    10    5   31 1
    11    6   27 1
    12    6   32 1
    13    7   24 2
    14    8   28 1
    15    8   33 1
    16    9   11 1
    17    9   14 1
    18    9   20 1
    19   10   26 1
    20   10   49 1
    21   10   50 1
    22   11   12 1
    23   11   13 1
    24   11   37 1
    25   12   17 1
    26   12   38 1
    27   13   15 ar
    28   13   18 ar
    29   14   16 1
    30   14   39 1
    31   14   40 1
    32   15   16 1
    33   15   21 ar
    34   16   41 1
    35   16   42 1
    36   17   19 ar
    37   17   22 ar
    38   18   23 ar
    39   19   24 1
    40   19   26 ar
    41   20   43 1
    42   20   44 1
    43   20   45 1
    44   21   25 ar
    45   21   46 1
    46   22   27 ar
    47   23   25 ar
    48   26   28 ar
    49   27   28 ar
    50   29   47 1
    51   29   48 1
    52   30   51 1
    53   30   52 1
    54   30   53 1
    55   31   34 1
    56   31   54 1
    57   31   55 1
    58   32   35 1
    59   32   56 1
    60   32   57 1
    61   33   36 1
    62   33   58 1
    63   33   59 1
    64   34   60 1
    65   34   61 1
    66   34   62 1
    67   35   63 1
    68   35   64 1
    69   35   65 1
    70   36   66 1
    71   36   67 1
    72   36   68 1
