@<TRIPOS>MOLECULE
DB13221
   29    28     0     0     0
SMALL
USER_CHARGES

@<TRIPOS>ATOM
      1 O1         -0.7568   -0.9563   -1.5085 O.2       1 <0>        -0.2750
      2 O2         -3.5513   -0.6601   -1.4720 O.2       1 <0>        -0.2527
      3 N1         -2.0315    0.0899    0.1353 N.am      1 <0>        -0.2401
      4 N2         -4.2897    0.4584    0.3943 N.am      1 <0>        -0.3130
      5 C1          0.3909    0.0307    0.3971 C.3       1 <0>         0.0417
      6 C2          0.8339    1.4759    0.0298 C.3       1 <0>        -0.0353
      7 C3          1.5129   -1.0194    0.2565 C.3       1 <0>        -0.0236
      8 C4          1.1750    1.6510   -1.4533 C.3       1 <0>        -0.0620
      9 C5          2.0130    1.9387    0.8919 C.3       1 <0>        -0.0620
     10 C6         -0.8386   -0.3510   -0.4419 C.2       1 <0>         0.2240
     11 C7          1.0470   -2.3992    0.6347 C.2       1 <0>        -0.0904
     12 C8          1.1195   -3.4633   -0.1729 C.2       1 <0>        -0.1026
     13 C9         -3.3059   -0.0900   -0.4106 C.2       1 <0>         0.3033
     14 H1          0.0829    0.0360    1.4531 H         1 <0>         0.0400
     15 H2         -0.0088    2.1466    0.2455 H         1 <0>         0.0303
     16 H3          1.9054   -1.0271   -0.7667 H         1 <0>         0.0315
     17 H4          2.3490   -0.7667    0.9179 H         1 <0>         0.0315
     18 H5          1.4609    2.6893   -1.6564 H         1 <0>         0.0233
     19 H6          0.3193    1.4253   -2.0959 H         1 <0>         0.0233
     20 H7          2.0126    1.0165   -1.7581 H         1 <0>         0.0233
     21 H8          2.9389    1.4135    0.6368 H         1 <0>         0.0233
     22 H9          1.8062    1.7813    1.9556 H         1 <0>         0.0233
     23 H10         2.1943    3.0092    0.7450 H         1 <0>         0.0233
     24 H11         0.6444   -2.5323    1.6357 H         1 <0>         0.0567
     25 H12        -1.9814    0.5899    1.0187 H         1 <0>         0.1591
     26 H13         0.7731   -4.4337    0.1652 H         1 <0>         0.0532
     27 H14         1.5204   -3.3870   -1.1773 H         1 <0>         0.0532
     28 H15        -4.0668    0.9249    1.2670 H         1 <0>         0.1465
     29 H16        -5.2688    0.4092    0.1335 H         1 <0>         0.1465
@<TRIPOS>BOND
     1    1   10 2
     2    2   13 2
     3    3   10 am
     4    3   13 am
     5    3   25 1
     6    4   13 am
     7    4   28 1
     8    4   29 1
     9    5    6 1
    10    5    7 1
    11    5   10 1
    12    5   14 1
    13    6    8 1
    14    6    9 1
    15    6   15 1
    16    7   11 1
    17    7   16 1
    18    7   17 1
    19    8   18 1
    20    8   19 1
    21    8   20 1
    22    9   21 1
    23    9   22 1
    24    9   23 1
    25   11   12 2
    26   11   24 1
    27   12   26 1
    28   12   27 1
