@<TRIPOS>MOLECULE
DB13225
   43    45     0     0     0
SMALL
USER_CHARGES

@<TRIPOS>ATOM
      1 O1          0.1133   -2.3357    1.5125 O.2       1 <0>        -0.2696
      2 N1         -0.2862   -0.2359    0.5996 N.am      1 <0>        -0.2644
      3 N2          2.5037    0.7305    0.6339 N.pl3     1 <0>        -0.3011
      4 N3         -3.9559   -0.9144    0.3608 N.3       1 <0>        -0.3068
      5 C1         -1.6855   -0.3065    1.0434 C.3       1 <0>         0.0329
      6 C2          0.1349    0.9916   -0.0263 C.ar      1 <0>         0.0579
      7 C3          1.4587    1.4791    0.0515 C.ar      1 <0>         0.0554
      8 C4         -2.5698   -0.8275   -0.0855 C.3       1 <0>         0.0145
      9 C5          2.7958   -0.5722    0.1986 C.ar      1 <0>         0.0460
     10 C6          1.8092   -1.5615    0.1814 C.ar      1 <0>         0.0585
     11 C7          0.4951   -1.3794    0.8299 C.2       1 <0>         0.2527
     12 C8         -0.8421    1.8031   -0.6513 C.ar      1 <0>        -0.0384
     13 C9          1.7365    2.7572   -0.4961 C.ar      1 <0>        -0.0385
     14 C10         3.5736    1.4617    1.3178 C.3       1 <0>         0.0058
     15 C11         4.0744   -0.9154   -0.2901 C.ar      1 <0>        -0.0396
     16 C12         2.0903   -2.8455   -0.3216 C.ar      1 <0>        -0.0478
     17 C13        -0.5371    3.0522   -1.1903 C.ar      1 <0>        -0.0599
     18 C14         0.7557    3.5332   -1.1087 C.ar      1 <0>        -0.0599
     19 C15         4.3514   -2.1889   -0.7918 C.ar      1 <0>        -0.0600
     20 C16         3.3549   -3.1537   -0.8141 C.ar      1 <0>        -0.0609
     21 C17        -4.8070   -1.4479   -0.7039 C.3       1 <0>        -0.0130
     22 C18        -4.4418    0.3979    0.7901 C.3       1 <0>        -0.0130
     23 H1         -1.7611   -0.9800    1.9066 H         1 <0>         0.0481
     24 H2         -1.9636    0.6828    1.4207 H         1 <0>         0.0481
     25 H3         -2.4896   -0.2742   -1.0240 H         1 <0>         0.0442
     26 H4         -2.2244   -1.8415   -0.3316 H         1 <0>         0.0442
     27 H5         -1.8883    1.5409   -0.7135 H         1 <0>         0.0637
     28 H6          2.7455    3.1637   -0.4725 H         1 <0>         0.0637
     29 H7          4.3034    1.8756    0.6128 H         1 <0>         0.0432
     30 H8          4.1054    0.8086    2.0207 H         1 <0>         0.0432
     31 H9          3.1646    2.2837    1.9181 H         1 <0>         0.0432
     32 H10         4.8754   -0.1799   -0.3159 H         1 <0>         0.0636
     33 H11         1.3286   -3.6222   -0.3260 H         1 <0>         0.0626
     34 H12        -1.3149    3.6499   -1.6561 H         1 <0>         0.0618
     35 H13         1.0071    4.5053   -1.5212 H         1 <0>         0.0618
     36 H14         5.3427   -2.4194   -1.1705 H         1 <0>         0.0618
     37 H15         3.5628   -4.1461   -1.2021 H         1 <0>         0.0618
     38 H16        -5.8359   -1.5731   -0.3485 H         1 <0>         0.0391
     39 H17        -4.4610   -2.4409   -1.0126 H         1 <0>         0.0391
     40 H18        -4.8231   -0.7979   -1.5863 H         1 <0>         0.0391
     41 H19        -4.0103    0.7038    1.7476 H         1 <0>         0.0391
     42 H20        -5.5231    0.3606    0.9724 H         1 <0>         0.0391
     43 H21        -4.2619    1.1781    0.0419 H         1 <0>         0.0391
@<TRIPOS>BOND
     1    1   11 2
     2    2    5 1
     3    2    6 1
     4    2   11 am
     5    3    7 1
     6    3    9 1
     7    3   14 1
     8    4    8 1
     9    4   21 1
    10    4   22 1
    11    5    8 1
    12    5   23 1
    13    5   24 1
    14    6    7 ar
    15    6   12 ar
    16    7   13 ar
    17    8   25 1
    18    8   26 1
    19    9   10 ar
    20    9   15 ar
    21   10   11 1
    22   10   16 ar
    23   12   17 ar
    24   12   27 1
    25   13   18 ar
    26   13   28 1
    27   14   29 1
    28   14   30 1
    29   14   31 1
    30   15   19 ar
    31   15   32 1
    32   16   20 ar
    33   16   33 1
    34   17   18 ar
    35   17   34 1
    36   18   35 1
    37   19   20 ar
    38   19   36 1
    39   20   37 1
    40   21   38 1
    41   21   39 1
    42   21   40 1
    43   22   41 1
    44   22   42 1
    45   22   43 1
