@<TRIPOS>MOLECULE
DB13952
   49    52     0     0     0
SMALL
USER_CHARGES

@<TRIPOS>ATOM
      1 O1         -5.3385    1.3496   -0.6268 O.3       1 <0>        -0.3912
      2 O2          5.4900    0.0162    0.4789 O.3       1 <0>        -0.4260
      3 O3          5.3554    0.4609   -1.8153 O.2       1 <0>        -0.2507
      4 C1         -2.9897    0.7088   -0.2337 C.3       1 <0>        -0.0030
      5 C2         -2.4141   -0.5971    0.3500 C.3       1 <0>        -0.0298
      6 C3         -0.9096   -0.7219    0.1111 C.3       1 <0>        -0.0305
      7 C4         -0.1912    0.4628    0.8257 C.3       1 <0>        -0.0125
      8 C5         -4.4779    0.4978    0.1045 C.3       1 <0>         0.0609
      9 C6         -2.3253    1.8876    0.4878 C.3       1 <0>        -0.0445
     10 C7         -3.3497   -1.6726   -0.1952 C.3       1 <0>        -0.0470
     11 C8         -0.7887    1.8277    0.3891 C.3       1 <0>        -0.0454
     12 C9         -4.7280   -0.9871   -0.2248 C.3       1 <0>        -0.0261
     13 C10        -0.3383   -2.0399    0.6373 C.3       1 <0>        -0.0454
     14 C11        -2.8034    0.8747   -1.7637 C.3       1 <0>        -0.0569
     15 C12         1.3253    0.3493    0.6961 C.ar      1 <0>        -0.0406
     16 C13         1.1299   -2.1624    0.2411 C.3       1 <0>        -0.0270
     17 C14         1.9331   -0.9039    0.4623 C.ar      1 <0>        -0.0404
     18 C15         2.1581    1.4650    0.8938 C.ar      1 <0>        -0.0546
     19 C16         3.3337   -0.9986    0.3794 C.ar      1 <0>        -0.0158
     20 C17         3.5483    1.3551    0.8179 C.ar      1 <0>        -0.0189
     21 C18         4.1363    0.1245    0.5559 C.ar      1 <0>         0.1319
     22 C19         6.0100    0.2133   -0.8113 C.2       1 <0>         0.3092
     23 C20         7.5033    0.0739   -0.7912 C.3       1 <0>         0.0336
     24 H1         -2.5644   -0.5895    1.4427 H         1 <0>         0.0310
     25 H2         -0.7046   -0.6810   -0.9665 H         1 <0>         0.0310
     26 H3         -0.3911    0.3702    1.9046 H         1 <0>         0.0352
     27 H4         -4.6589    0.6715    1.1727 H         1 <0>         0.0599
     28 H5         -2.6030    1.8801    1.5500 H         1 <0>         0.0272
     29 H6         -2.6835    2.8418    0.0835 H         1 <0>         0.0272
     30 H7         -3.3635   -2.5645    0.4393 H         1 <0>         0.0269
     31 H8         -3.0570   -1.9869   -1.2032 H         1 <0>         0.0269
     32 H9         -0.4699    2.0618   -0.6338 H         1 <0>         0.0271
     33 H10        -0.3963    2.6324    1.0216 H         1 <0>         0.0271
     34 H11        -5.2070   -1.1181   -1.2016 H         1 <0>         0.0290
     35 H12        -5.3990   -1.4286    0.5204 H         1 <0>         0.0290
     36 H13        -0.8857   -2.8994    0.2346 H         1 <0>         0.0271
     37 H14        -0.4355   -2.0828    1.7298 H         1 <0>         0.0271
     38 H15        -3.2397    1.8209   -2.1047 H         1 <0>         0.0236
     39 H16        -1.7521    0.8874   -2.0630 H         1 <0>         0.0236
     40 H17        -3.2868    0.0749   -2.3335 H         1 <0>         0.0236
     41 H18         1.1919   -2.4171   -0.8248 H         1 <0>         0.0313
     42 H19         1.5760   -2.9916    0.8036 H         1 <0>         0.0313
     43 H20        -6.2520    1.0904   -0.4180 H         1 <0>         0.2098
     44 H21         1.7437    2.4430    1.1188 H         1 <0>         0.0622
     45 H22         3.7987   -1.9615    0.1777 H         1 <0>         0.0657
     46 H23         4.1640    2.2375    0.9700 H         1 <0>         0.0654
     47 H24         7.9349    0.8238   -0.1239 H         1 <0>         0.0342
     48 H25         7.8965    0.2350   -1.7989 H         1 <0>         0.0342
     49 H26         7.7752   -0.9334   -0.4665 H         1 <0>         0.0342
@<TRIPOS>BOND
     1    1    8 1
     2    1   43 1
     3    2   21 1
     4    2   22 1
     5    3   22 2
     6    4    5 1
     7    4    8 1
     8    4    9 1
     9    4   14 1
    10    5    6 1
    11    5   10 1
    12    5   24 1
    13    6    7 1
    14    6   13 1
    15    6   25 1
    16    7   11 1
    17    7   15 1
    18    7   26 1
    19    8   12 1
    20    8   27 1
    21    9   11 1
    22    9   28 1
    23    9   29 1
    24   10   12 1
    25   10   30 1
    26   10   31 1
    27   11   32 1
    28   11   33 1
    29   12   34 1
    30   12   35 1
    31   13   16 1
    32   13   36 1
    33   13   37 1
    34   14   38 1
    35   14   39 1
    36   14   40 1
    37   15   17 ar
    38   15   18 ar
    39   16   17 1
    40   16   41 1
    41   16   42 1
    42   17   19 ar
    43   18   20 ar
    44   18   44 1
    45   19   21 ar
    46   19   45 1
    47   20   21 ar
    48   20   46 1
    49   22   23 1
    50   23   47 1
    51   23   48 1
    52   23   49 1
