@<TRIPOS>MOLECULE
DB13872
   34    36     0     0     0
SMALL
USER_CHARGES

@<TRIPOS>ATOM
      1 Cl1         0.1264   -4.6350   -0.8779 Cl        1 <0>        -0.0835
      2 Cl2         1.0042    1.3782    2.3636 Cl        1 <0>        -0.0829
      3 O1         -1.4859    2.8658   -2.4077 O.3       1 <0>        -0.3636
      4 O2         -2.5833    2.9512   -0.0408 O.2       1 <0>        -0.2702
      5 N1         -2.3449    0.6739    0.3654 N.am      1 <0>        -0.2701
      6 N2          0.1313    1.6156   -1.1038 N.2       1 <0>        -0.2428
      7 C1         -0.3891   -0.6822   -0.4069 C.ar      1 <0>         0.0234
      8 C2         -1.7060   -0.5826    0.0853 C.ar      1 <0>         0.0453
      9 C3          0.4989    0.5066   -0.5573 C.2       1 <0>         0.0794
     10 C4         -1.2337    1.7244   -1.5907 C.3       1 <0>         0.2248
     11 C5         -2.0976    1.8577   -0.3446 C.2       1 <0>         0.2709
     12 C6          1.8949    0.4354   -0.0371 C.ar      1 <0>         0.0190
     13 C7          0.1643   -1.9372   -0.7187 C.ar      1 <0>        -0.0324
     14 C8         -2.4054   -1.7825    0.3225 C.ar      1 <0>        -0.0383
     15 C9         -3.3640    0.7048    1.4149 C.3       1 <0>         0.0084
     16 C10        -0.5625   -3.1038   -0.5028 C.ar      1 <0>         0.0417
     17 C11        -1.8424   -3.0271    0.0290 C.ar      1 <0>        -0.0416
     18 C12         2.2097    0.8076    1.2662 C.ar      1 <0>         0.0501
     19 C13         2.8870   -0.0205   -0.9001 C.ar      1 <0>        -0.0512
     20 C14         3.5290    0.7230    1.7110 C.ar      1 <0>        -0.0427
     21 C15         4.2063   -0.1050   -0.4552 C.ar      1 <0>        -0.0611
     22 C16         4.5274    0.2668    0.8502 C.ar      1 <0>        -0.0603
     23 H1         -1.5416    0.8617   -2.1908 H         1 <0>         0.0952
     24 H2          1.1645   -2.0243   -1.1308 H         1 <0>         0.0639
     25 H3         -3.4221   -1.7776    0.7077 H         1 <0>         0.0637
     26 H4         -3.0464    0.1003    2.2705 H         1 <0>         0.0433
     27 H5         -4.3085    0.3325    1.0065 H         1 <0>         0.0433
     28 H6         -3.5303    1.7262    1.7702 H         1 <0>         0.0433
     29 H7         -2.4248   -3.9266    0.2120 H         1 <0>         0.0633
     30 H8          2.6553   -0.3008   -1.9243 H         1 <0>         0.0625
     31 H9          3.7960    1.0089    2.7252 H         1 <0>         0.0632
     32 H10         4.9842   -0.4572   -1.1262 H         1 <0>         0.0618
     33 H11        -1.0456    3.6202   -1.9805 H         1 <0>         0.2125
     34 H12         5.5549    0.2018    1.1962 H         1 <0>         0.0618
@<TRIPOS>BOND
     1    1   16 1
     2    2   18 1
     3    3   10 1
     4    3   33 1
     5    4   11 2
     6    5    8 1
     7    5   11 am
     8    5   15 1
     9    6    9 2
    10    6   10 1
    11    7    8 ar
    12    7    9 1
    13    7   13 ar
    14    8   14 ar
    15    9   12 1
    16   10   11 1
    17   10   23 1
    18   12   18 ar
    19   12   19 ar
    20   13   16 ar
    21   13   24 1
    22   14   17 ar
    23   14   25 1
    24   15   26 1
    25   15   27 1
    26   15   28 1
    27   16   17 ar
    28   17   29 1
    29   18   20 ar
    30   19   21 ar
    31   19   30 1
    32   20   22 ar
    33   20   31 1
    34   21   22 ar
    35   21   32 1
    36   22   34 1
