@<TRIPOS>MOLECULE
DB13247
   46    46     0     0     0
SMALL
USER_CHARGES

@<TRIPOS>ATOM
      1 O1          4.2011   -1.8353    1.5149 O.2       1 <0>        -0.2756
      2 O2          2.0467   -0.0928   -1.0625 O.2       1 <0>        -0.2741
      3 N1         -2.5823   -0.1105   -0.7000 N.3       1 <0>        -0.2960
      4 N2          4.2660    0.2486    0.4218 N.am      1 <0>        -0.2927
      5 N3          0.7399    1.1919    0.3670 N.am      1 <0>        -0.3128
      6 C1         -3.3676   -1.2914   -0.3350 C.3       1 <0>         0.0051
      7 C2         -3.3598    1.1077   -0.4644 C.3       1 <0>         0.0051
      8 C3         -1.3316   -0.0743    0.0468 C.3       1 <0>         0.0150
      9 C4          5.0810    0.8793   -0.5893 C.3       1 <0>         0.0156
     10 C5          6.3746    0.0919   -0.5291 C.3       1 <0>        -0.0289
     11 C6         -0.4939    1.1214   -0.3822 C.3       1 <0>         0.0244
     12 C7          5.9353   -1.3006   -0.0926 C.3       1 <0>         0.0256
     13 C8          3.0537    0.8672    0.9126 C.3       1 <0>         0.0909
     14 C9          4.7069   -1.0324    0.7452 C.2       1 <0>         0.2160
     15 C10        -3.6949   -1.2693    1.1553 C.3       1 <0>        -0.0497
     16 C11        -2.5924   -2.5514   -0.7072 C.3       1 <0>        -0.0497
     17 C12        -3.6869    1.2479    1.0196 C.3       1 <0>        -0.0497
     18 C13        -4.6323    1.0684   -1.3046 C.3       1 <0>        -0.0497
     19 C14         1.9139    0.5743   -0.0397 C.2       1 <0>         0.2305
     20 H1         -4.2931   -1.3602   -0.9153 H         1 <0>         0.0457
     21 H2         -2.8236    1.9916   -0.8211 H         1 <0>         0.0457
     22 H3         -1.3866   -0.0774    1.1362 H         1 <0>         0.0442
     23 H4         -0.7224   -0.9510   -0.2037 H         1 <0>         0.0442
     24 H5          4.5873    0.7733   -1.5602 H         1 <0>         0.0465
     25 H6          5.2336    1.9380   -0.3612 H         1 <0>         0.0465
     26 H7          6.9168    0.0908   -1.4786 H         1 <0>         0.0285
     27 H8          7.0348    0.5212    0.2351 H         1 <0>         0.0285
     28 H9         -0.9714    2.0809   -0.1727 H         1 <0>         0.0474
     29 H10        -0.2600    1.0752   -1.4521 H         1 <0>         0.0474
     30 H11         5.6481   -1.9168   -0.9502 H         1 <0>         0.0359
     31 H12         6.7072   -1.8062    0.4926 H         1 <0>         0.0359
     32 H13         2.8057    0.4380    1.8892 H         1 <0>         0.0560
     33 H14         3.2079    1.9457    1.0132 H         1 <0>         0.0560
     34 H15        -3.8392   -2.3247    1.4443 H         1 <0>         0.0245
     35 H16        -2.9368   -0.9737    1.8784 H         1 <0>         0.0245
     36 H17        -4.6932   -0.8897    1.3776 H         1 <0>         0.0245
     37 H18        -2.1964   -2.4950   -1.7275 H         1 <0>         0.0245
     38 H19        -3.2609   -3.4206   -0.6750 H         1 <0>         0.0245
     39 H20        -1.7687   -2.7729   -0.0205 H         1 <0>         0.0245
     40 H21        -3.7767    2.3391    1.1652 H         1 <0>         0.0245
     41 H22        -4.6942    0.9476    1.3152 H         1 <0>         0.0245
     42 H23        -2.9203    1.0268    1.7615 H         1 <0>         0.0245
     43 H24        -4.4219    0.7933   -2.3445 H         1 <0>         0.0245
     44 H25        -5.0840    2.0680   -1.3271 H         1 <0>         0.0245
     45 H26        -5.4044    0.3994   -0.9113 H         1 <0>         0.0245
     46 H27         0.7352    1.7187    1.2360 H         1 <0>         0.1488
@<TRIPOS>BOND
     1    1   14 2
     2    2   19 2
     3    3    6 1
     4    3    7 1
     5    3    8 1
     6    4    9 1
     7    4   13 1
     8    4   14 am
     9    5   11 1
    10    5   19 am
    11    5   46 1
    12    6   15 1
    13    6   16 1
    14    6   20 1
    15    7   17 1
    16    7   18 1
    17    7   21 1
    18    8   11 1
    19    8   22 1
    20    8   23 1
    21    9   10 1
    22    9   24 1
    23    9   25 1
    24   10   12 1
    25   10   26 1
    26   10   27 1
    27   11   28 1
    28   11   29 1
    29   12   14 1
    30   12   30 1
    31   12   31 1
    32   13   19 1
    33   13   32 1
    34   13   33 1
    35   15   34 1
    36   15   35 1
    37   15   36 1
    38   16   37 1
    39   16   38 1
    40   16   39 1
    41   17   40 1
    42   17   41 1
    43   17   42 1
    44   18   43 1
    45   18   44 1
    46   18   45 1
