@<TRIPOS>MOLECULE
DB13116
    8     7     0     0     0
SMALL
USER_CHARGES

@<TRIPOS>ATOM
      1 F1         -1.3036   -1.2011   -0.0348 F         1 <0>        -0.1679
      2 F2         -1.1577    0.6506    1.1098 F         1 <0>        -0.1679
      3 F3         -1.1574    0.7169   -1.0710 F         1 <0>        -0.1679
      4 F4          1.3075    1.1526    0.0112 F         1 <0>        -0.2397
      5 C1         -0.7251    0.0173   -0.0014 C.3       1 <0>         0.4176
      6 C2          0.7733   -0.0967   -0.0009 C.3       1 <0>         0.1847
      7 H1          1.1318   -0.6102   -0.8969 H         1 <0>         0.0706
      8 H2          1.1311   -0.6293    0.8840 H         1 <0>         0.0706
@<TRIPOS>BOND
     1    1    5 1
     2    2    5 1
     3    3    5 1
     4    4    6 1
     5    5    6 1
     6    6    7 1
     7    6    8 1
