@<TRIPOS>MOLECULE
DB13074
   65    68     0     0     0
SMALL
USER_CHARGES

@<TRIPOS>ATOM
      1 O1         -0.1499   -0.9819    2.0538 O.2       1 <0>        -0.2737
      2 O2         -3.2817   -0.8820   -1.7214 O.2       1 <0>        -0.2738
      3 O3          4.7215    0.6630    2.3565 O.2       1 <0>        -0.2795
      4 N1         -2.1877   -1.3773    0.2539 N.am      1 <0>        -0.3022
      5 N2          1.0142    0.1611    0.4044 N.am      1 <0>        -0.2952
      6 N3          2.7607   -2.1415   -2.7433 N.pl3     1 <0>        -0.3604
      7 N4          3.2568    0.9608    0.5605 N.am      1 <0>        -0.2994
      8 N5          1.4104    4.8959   -0.5111 N.pl3     1 <0>        -0.3604
      9 N6         -5.7423   -1.1217   -0.7020 N.3       1 <0>        -0.3178
     10 C1         -0.8471   -1.2338   -0.2569 C.3       1 <0>         0.1035
     11 C2         -0.2845   -2.5636   -0.7732 C.3       1 <0>         0.0013
     12 C3          1.9972    0.7959    1.2710 C.3       1 <0>         0.0932
     13 C4          1.1034   -2.4421   -1.3339 C.2       1 <0>        -0.0201
     14 C5          1.4891    2.1258    1.8663 C.3       1 <0>         0.0094
     15 C6          0.0155   -0.6811    0.8735 C.2       1 <0>         0.2350
     16 C7          1.1799    3.1913    0.8499 C.2       1 <0>        -0.0190
     17 C8         -4.6423   -1.3998    0.2311 C.3       1 <0>         0.0880
     18 C9          2.3006   -2.5926   -0.6074 C.ar      1 <0>         0.0029
     19 C10        -3.3201   -1.1876   -0.5293 C.2       1 <0>         0.2331
     20 C11        -0.0645    3.3929    0.2258 C.2       1 <0>         0.0029
     21 C12         3.3392   -2.3980   -1.5205 C.ar      1 <0>         0.0467
     22 C13         1.3962   -2.1671   -2.6349 C.2       1 <0>         0.0060
     23 C14         0.1038    4.4800   -0.6345 C.2       1 <0>         0.0467
     24 C15         2.0720    4.1114    0.3948 C.2       1 <0>         0.0060
     25 C16        -4.7756   -2.8506    0.7030 C.3       1 <0>        -0.0387
     26 C17        -4.7621   -0.4270    1.4080 C.3       1 <0>        -0.0387
     27 C18         2.6218   -2.8750    0.7351 C.ar      1 <0>        -0.0523
     28 C19         4.6884   -2.4718   -1.1567 C.ar      1 <0>        -0.0378
     29 C20        -1.3268    2.7707    0.2935 C.2       1 <0>        -0.0523
     30 C21        -0.9315    4.9781   -1.4337 C.2       1 <0>        -0.0378
     31 C22         3.9672   -2.9520    1.1134 C.ar      1 <0>        -0.0611
     32 C23         4.9830   -2.7531    0.1805 C.ar      1 <0>        -0.0598
     33 C24        -2.3718    3.2580   -0.5001 C.2       1 <0>        -0.0611
     34 C25        -2.1749    4.3449   -1.3498 C.2       1 <0>        -0.0598
     35 C26         4.4873    0.8778    1.1741 C.2       1 <0>         0.2013
     36 H1         -0.8733   -0.5033   -1.0757 H         1 <0>         0.0598
     37 H2         -0.9516   -2.9666   -1.5472 H         1 <0>         0.0337
     38 H3         -0.2858   -3.3088    0.0336 H         1 <0>         0.0337
     39 H4          2.1823    0.1136    2.1101 H         1 <0>         0.0710
     40 H5          0.5900    1.9341    2.4662 H         1 <0>         0.0348
     41 H6          2.2409    2.5167    2.5652 H         1 <0>         0.0348
     42 H7         -2.2963   -1.6584    1.2235 H         1 <0>         0.1495
     43 H8          1.0677    0.3717   -0.5874 H         1 <0>         0.1505
     44 H9          0.7716   -1.9852   -3.4983 H         1 <0>         0.0810
     45 H10         3.2705   -1.9601   -3.5969 H         1 <0>         0.1653
     46 H11         3.1137    4.2910    0.6216 H         1 <0>         0.0810
     47 H12         3.2198    1.1572   -0.4351 H         1 <0>         0.1502
     48 H13        -4.6412   -3.5537   -0.1276 H         1 <0>         0.0252
     49 H14        -5.7598   -3.0381    1.1486 H         1 <0>         0.0252
     50 H15        -4.0236   -3.0994    1.4599 H         1 <0>         0.0252
     51 H16        -5.7511   -0.4871    1.8775 H         1 <0>         0.0252
     52 H17        -4.0217   -0.6393    2.1870 H         1 <0>         0.0252
     53 H18        -4.6036    0.6093    1.0861 H         1 <0>         0.0252
     54 H19         1.8453   -3.0393    1.4763 H         1 <0>         0.0624
     55 H20         1.8208    5.6687   -1.0168 H         1 <0>         0.1653
     56 H21         5.4798   -2.3163   -1.8821 H         1 <0>         0.0638
     57 H22        -1.5029    1.9271    0.9542 H         1 <0>         0.0624
     58 H23        -5.6694   -0.1680   -1.0542 H         1 <0>         0.1191
     59 H24        -5.6790   -1.7384   -1.5110 H         1 <0>         0.1191
     60 H25        -0.7792    5.8242   -2.0955 H         1 <0>         0.0638
     61 H26         4.2210   -3.1691    2.1476 H         1 <0>         0.0618
     62 H27         6.0211   -2.8162    0.4965 H         1 <0>         0.0618
     63 H28        -3.3476    2.7818   -0.4513 H         1 <0>         0.0618
     64 H29        -3.0004    4.7069   -1.9573 H         1 <0>         0.0618
     65 H30         5.2964    1.0368    0.4424 H         1 <0>         0.1252
@<TRIPOS>BOND
     1    1   15 2
     2    2   19 2
     3    3   35 2
     4    4   10 1
     5    4   19 am
     6    4   42 1
     7    5   12 1
     8    5   15 am
     9    5   43 1
    10    6   21 1
    11    6   22 1
    12    6   45 1
    13    7   12 1
    14    7   35 am
    15    7   47 1
    16    8   23 1
    17    8   24 2
    18    8   55 1
    19    9   17 1
    20    9   58 1
    21    9   59 1
    22   10   11 1
    23   10   15 1
    24   10   36 1
    25   11   13 1
    26   11   37 1
    27   11   38 1
    28   12   14 1
    29   12   39 1
    30   13   18 1
    31   13   22 2
    32   14   16 1
    33   14   40 1
    34   14   41 1
    35   16   20 2
    36   16   24 1
    37   17   19 1
    38   17   25 1
    39   17   26 1
    40   18   21 ar
    41   18   27 ar
    42   20   23 1
    43   20   29 2
    44   21   28 ar
    45   22   44 1
    46   23   30 2
    47   24   46 1
    48   25   48 1
    49   25   49 1
    50   25   50 1
    51   26   51 1
    52   26   52 1
    53   26   53 1
    54   27   31 ar
    55   27   54 1
    56   28   32 ar
    57   28   56 1
    58   29   33 1
    59   29   57 1
    60   30   34 1
    61   30   60 1
    62   31   32 ar
    63   31   61 1
    64   32   62 1
    65   33   34 2
    66   33   63 1
    67   34   64 1
    68   35   65 1
