@<TRIPOS>MOLECULE
DB13838
   15    14     0     0     0
SMALL
USER_CHARGES

@<TRIPOS>ATOM
      1 S1         -0.0907   -2.6920   -0.1468 S.2       1 <0>        -0.0188
      2 O1         -2.6872    1.1249    0.2019 O.3       1 <0>        -0.3772
      3 N1         -0.6532   -0.0291    0.0710 N.pl3     1 <0>        -0.3042
      4 N2          1.5992   -0.6696   -0.0527 N.pl3     1 <0>        -0.3296
      5 C1         -2.0996   -0.1614    0.1092 C.3       1 <0>         0.1092
      6 C2          0.2713   -1.0538   -0.0375 C.2       1 <0>         0.1317
      7 C3          2.1127    0.6837    0.0327 C.3       1 <0>        -0.0009
      8 H1         -0.3067    0.9205    0.1397 H         1 <0>         0.1499
      9 H2         -2.3852   -0.7509    0.9847 H         1 <0>         0.0767
     10 H3         -2.4478   -0.6577   -0.8011 H         1 <0>         0.0767
     11 H4          2.2862   -1.4133   -0.1310 H         1 <0>         0.1474
     12 H5          1.7948    1.1318    0.9776 H         1 <0>         0.0426
     13 H6          1.7294    1.2696   -0.8067 H         1 <0>         0.0426
     14 H7          3.2036    0.6443   -0.0104 H         1 <0>         0.0426
     15 H8         -2.3267    1.6529   -0.5304 H         1 <0>         0.2114
@<TRIPOS>BOND
     1    1    6 2
     2    2    5 1
     3    2   15 1
     4    3    5 1
     5    3    6 1
     6    3    8 1
     7    4    6 1
     8    4    7 1
     9    4   11 1
    10    5    9 1
    11    5   10 1
    12    7   12 1
    13    7   13 1
    14    7   14 1
