@<TRIPOS>MOLECULE
DB13278
   33    33     0     0     0
SMALL
USER_CHARGES

@<TRIPOS>ATOM
      1 O1         -4.6061    1.4622    0.9859 O.3       1 <0>        -0.3916
      2 O2          4.2535    0.5192   -0.5706 O.3       1 <0>        -0.4922
      3 O3         -2.1552    1.5325   -0.3705 O.2       1 <0>        -0.2754
      4 N1         -1.1666   -0.5892   -0.1817 N.am      1 <0>        -0.2854
      5 C1         -4.7579    0.5332   -0.0856 C.3       1 <0>         0.0607
      6 C2         -3.5563   -0.4119   -0.0843 C.3       1 <0>         0.0500
      7 C3         -2.2236    0.3159   -0.2317 C.2       1 <0>         0.2196
      8 C4          0.2167   -0.3068   -0.2814 C.ar      1 <0>         0.0336
      9 C5         -6.0590   -0.2327    0.1164 C.3       1 <0>        -0.0385
     10 C6          1.1277   -1.3472   -0.2089 C.ar      1 <0>        -0.0370
     11 C7          0.6294    1.0046   -0.4480 C.ar      1 <0>        -0.0370
     12 C8          2.9235    0.2473   -0.4739 C.ar      1 <0>         0.1206
     13 C9          2.4910   -1.0683   -0.3057 C.ar      1 <0>        -0.0182
     14 C10         1.9926    1.2838   -0.5450 C.ar      1 <0>        -0.0182
     15 C11         5.1466   -0.3519    0.1218 C.3       1 <0>         0.0868
     16 C12         6.3825    0.4254    0.5218 C.3       1 <0>        -0.0307
     17 H1         -4.7987    1.1055   -1.0183 H         1 <0>         0.0595
     18 H2         -3.6470   -1.1366   -0.9019 H         1 <0>         0.0384
     19 H3         -3.5182   -0.9659    0.8627 H         1 <0>         0.0384
     20 H4         -6.0570   -0.7737    1.0692 H         1 <0>         0.0255
     21 H5         -6.9063    0.4606    0.1513 H         1 <0>         0.0255
     22 H6         -6.2271   -0.9489   -0.6934 H         1 <0>         0.0255
     23 H7         -1.3986   -1.5729   -0.0608 H         1 <0>         0.1548
     24 H8          0.8005   -2.3757   -0.0841 H         1 <0>         0.0637
     25 H9         -0.0267    1.8598   -0.5120 H         1 <0>         0.0637
     26 H10         3.1804   -1.9067   -0.2736 H         1 <0>         0.0655
     27 H11         2.3251    2.3101   -0.6760 H         1 <0>         0.0655
     28 H12        -4.5753    0.9596    1.8179 H         1 <0>         0.2098
     29 H13         4.6978   -0.7509    1.0403 H         1 <0>         0.0694
     30 H14         5.4269   -1.1794   -0.5391 H         1 <0>         0.0694
     31 H15         7.0958   -0.2160    1.0472 H         1 <0>         0.0262
     32 H16         6.8730    0.8499   -0.3604 H         1 <0>         0.0262
     33 H17         6.1164    1.2651    1.1724 H         1 <0>         0.0262
@<TRIPOS>BOND
     1    1    5 1
     2    1   28 1
     3    2   12 1
     4    2   15 1
     5    3    7 2
     6    4    7 am
     7    4    8 1
     8    4   23 1
     9    5    6 1
    10    5    9 1
    11    5   17 1
    12    6    7 1
    13    6   18 1
    14    6   19 1
    15    8   10 ar
    16    8   11 ar
    17    9   20 1
    18    9   21 1
    19    9   22 1
    20   10   13 ar
    21   10   24 1
    22   11   14 ar
    23   11   25 1
    24   12   13 ar
    25   12   14 ar
    26   13   26 1
    27   14   27 1
    28   15   16 1
    29   15   29 1
    30   15   30 1
    31   16   31 1
    32   16   32 1
    33   16   33 1
