@<TRIPOS>MOLECULE
DB13269
   16    16     0     0     0
SMALL
USER_CHARGES

@<TRIPOS>ATOM
      1 Cl1        -0.8681    2.5991    0.2937 Cl        1 <0>        -0.0831
      2 Cl2         3.9217    0.1920   -0.1902 Cl        1 <0>        -0.0835
      3 O1         -2.6250   -0.2475   -1.0026 O.3       1 <0>        -0.3904
      4 C1         -0.5643   -0.1059    0.1763 C.ar      1 <0>        -0.0038
      5 C2         -2.0470   -0.2476    0.2959 C.3       1 <0>         0.0706
      6 C3          0.0528    1.1449    0.1665 C.ar      1 <0>         0.0477
      7 C4          0.2057   -1.2644    0.0729 C.ar      1 <0>        -0.0536
      8 C5          1.4400    1.2374    0.0532 C.ar      1 <0>        -0.0247
      9 C6          1.5928   -1.1719   -0.0405 C.ar      1 <0>        -0.0430
     10 C7          2.2101    0.0790   -0.0504 C.ar      1 <0>         0.0424
     11 H1         -2.3078   -1.1963    0.7791 H         1 <0>         0.0608
     12 H2         -2.5127    0.5344    0.9028 H         1 <0>         0.0608
     13 H3         -0.2607   -2.2461    0.0767 H         1 <0>         0.0622
     14 H4          1.9231    2.2123    0.0455 H         1 <0>         0.0647
     15 H5          2.1803   -2.0831   -0.1210 H         1 <0>         0.0632
     16 H6         -2.3408    0.5637   -1.4577 H         1 <0>         0.2098
@<TRIPOS>BOND
     1    1    6 1
     2    2   10 1
     3    3    5 1
     4    3   16 1
     5    4    5 1
     6    4    6 ar
     7    4    7 ar
     8    5   11 1
     9    5   12 1
    10    6    8 ar
    11    7    9 ar
    12    7   13 1
    13    8   10 ar
    14    8   14 1
    15    9   10 ar
    16    9   15 1
