@<TRIPOS>MOLECULE
DB13180
   25    24     0     0     0
SMALL
USER_CHARGES

@<TRIPOS>ATOM
      1 O1         -1.3727    1.8775    0.7786 O.3       1 <0>        -0.3865
      2 O2          1.3865    1.8911    0.6764 O.3       1 <0>        -0.3860
      3 O3         -2.8119    0.2519   -1.0735 O.3       1 <0>        -0.3869
      4 O4          1.7003    0.5086   -1.8074 O.3       1 <0>        -0.3783
      5 O5         -2.6180   -2.2337    0.2838 O.3       1 <0>        -0.3924
      6 O6          2.8898   -1.1479    1.1589 O.3       1 <0>        -0.4788
      7 O7          3.9868   -0.0602   -0.5032 O.2       1 <0>        -0.2480
      8 C1         -0.7077    1.0610   -0.1802 C.3       1 <0>         0.1119
      9 C2          0.6804    0.6820    0.3830 C.3       1 <0>         0.1197
     10 C3         -1.5656   -0.1768   -0.5256 C.3       1 <0>         0.1065
     11 C4          1.5580   -0.1605   -0.5621 C.3       1 <0>         0.1798
     12 C5         -1.8376   -1.1075    0.6595 C.3       1 <0>         0.0727
     13 C6          2.9383   -0.4414    0.0007 C.2       1 <0>         0.3363
     14 H1         -0.5896    1.6893   -1.0713 H         1 <0>         0.0647
     15 H2          0.5718    0.1731    1.3472 H         1 <0>         0.0652
     16 H3         -1.0839   -0.7501   -1.3243 H         1 <0>         0.0643
     17 H4          1.0884   -1.1293   -0.7632 H         1 <0>         0.0738
     18 H5         -2.3974   -0.5831    1.4406 H         1 <0>         0.0584
     19 H6         -0.9110   -1.4857    1.0994 H         1 <0>         0.0584
     20 H7         -2.1955    2.1984    0.3726 H         1 <0>         0.2100
     21 H8          0.8315    2.4135    1.2806 H         1 <0>         0.2100
     22 H9         -3.3354    0.6482   -0.3566 H         1 <0>         0.2100
     23 H10         2.1442   -0.1028   -2.4198 H         1 <0>         0.2106
     24 H11        -2.1346   -2.7018   -0.4182 H         1 <0>         0.2095
     25 H12         3.7850   -1.3140    1.5239 H         1 <0>         0.2951
@<TRIPOS>BOND
     1    1    8 1
     2    1   20 1
     3    2    9 1
     4    2   21 1
     5    3   10 1
     6    3   22 1
     7    4   11 1
     8    4   23 1
     9    5   12 1
    10    5   24 1
    11    6   13 1
    12    6   25 1
    13    7   13 2
    14    8    9 1
    15    8   10 1
    16    8   14 1
    17    9   11 1
    18    9   15 1
    19   10   12 1
    20   10   16 1
    21   11   13 1
    22   11   17 1
    23   12   18 1
    24   12   19 1
