@<TRIPOS>MOLECULE
DB13946
   81    84     0     0     0
SMALL
USER_CHARGES

@<TRIPOS>ATOM
      1 O1         -0.8268    4.0918    0.1067 O.3       1 <0>        -0.4608
      2 O2         -5.6074   -5.5258    1.6150 O.2       1 <0>        -0.2927
      3 O3         -0.5686    3.8692    2.3903 O.2       1 <0>        -0.2508
      4 C1         -3.3193    1.4793   -0.3958 C.3       1 <0>        -0.0290
      5 C2         -1.8607    1.8613   -0.0790 C.3       1 <0>         0.0081
      6 C3         -3.4780   -0.0020   -0.7521 C.3       1 <0>        -0.0337
      7 C4         -2.9968   -0.8643    0.4574 C.3       1 <0>        -0.0288
      8 C5         -3.1607   -2.4134    0.2084 C.3       1 <0>        -0.0072
      9 C6         -1.4189    1.0654    1.1554 C.3       1 <0>        -0.0437
     10 C7         -1.5774   -0.4501    0.9367 C.3       1 <0>        -0.0485
     11 C8         -2.0436    3.3724    0.1601 C.3       1 <0>         0.1087
     12 C9         -3.7532    2.5382   -1.4060 C.3       1 <0>        -0.0460
     13 C10        -4.9336   -0.3420   -1.0956 C.3       1 <0>        -0.0459
     14 C11        -3.0165    3.8113   -0.9518 C.3       1 <0>        -0.0149
     15 C12        -4.5785   -2.7034   -0.3010 C.2       1 <0>        -0.0601
     16 C13        -0.8614    1.6162   -1.2381 C.3       1 <0>        -0.0559
     17 C14        -5.0921   -1.8228   -1.4157 C.3       1 <0>        -0.0305
     18 C15        -2.9179   -3.1533    1.5563 C.3       1 <0>        -0.0367
     19 C16        -2.1548   -2.9402   -0.8401 C.3       1 <0>        -0.0556
     20 C17        -3.4029   -4.5944    1.5569 C.3       1 <0>         0.0107
     21 C18        -5.3575   -3.6926    0.1680 C.2       1 <0>        -0.0194
     22 C19        -4.8572   -4.6583    1.1728 C.2       1 <0>         0.1561
     23 C20        -0.1807    4.2738    1.3018 C.2       1 <0>         0.3074
     24 C21         1.0977    5.0499    1.1036 C.3       1 <0>         0.0449
     25 C22         2.0899    4.3171    0.2041 C.3       1 <0>        -0.0430
     26 C23         2.5447    2.9828    0.8044 C.3       1 <0>        -0.0526
     27 C24         3.5921    2.2591   -0.0476 C.3       1 <0>        -0.0530
     28 C25         4.1011    0.9623    0.5876 C.3       1 <0>        -0.0531
     29 C26         5.1198    0.2667   -0.3187 C.3       1 <0>        -0.0531
     30 C27         5.6421   -1.0553    0.2524 C.3       1 <0>        -0.0531
     31 C28         6.6488   -1.8100   -0.6211 C.3       1 <0>        -0.0533
     32 C29         7.0905   -3.1469   -0.0255 C.3       1 <0>        -0.0559
     33 C30         8.0172   -3.8958   -0.9710 C.3       1 <0>        -0.0653
     34 H1         -3.9288    1.6542    0.5070 H         1 <0>         0.0310
     35 H2         -2.8680   -0.2274   -1.6336 H         1 <0>         0.0307
     36 H3         -3.6721   -0.6116    1.2915 H         1 <0>         0.0312
     37 H4         -2.0207    1.3552    2.0264 H         1 <0>         0.0272
     38 H5         -0.3767    1.2822    1.4117 H         1 <0>         0.0272
     39 H6         -1.3436   -0.9467    1.8848 H         1 <0>         0.0268
     40 H7         -0.8219   -0.7862    0.2198 H         1 <0>         0.0268
     41 H8         -2.5552    3.5495    1.1171 H         1 <0>         0.0739
     42 H9         -4.8380    2.6857   -1.4057 H         1 <0>         0.0269
     43 H10        -3.4553    2.2674   -2.4250 H         1 <0>         0.0269
     44 H11        -5.5926   -0.0718   -0.2600 H         1 <0>         0.0271
     45 H12        -5.2639    0.2423   -1.9623 H         1 <0>         0.0271
     46 H13        -3.7225    4.5545   -0.5643 H         1 <0>         0.0301
     47 H14        -2.4938    4.2796   -1.7935 H         1 <0>         0.0301
     48 H15        -1.1010    2.2068   -2.1281 H         1 <0>         0.0236
     49 H16         0.1561    1.8882   -0.9386 H         1 <0>         0.0236
     50 H17        -0.8275    0.5700   -1.5531 H         1 <0>         0.0236
     51 H18        -4.5452   -2.0595   -2.3366 H         1 <0>         0.0310
     52 H19        -6.1496   -2.0240   -1.6273 H         1 <0>         0.0310
     53 H20        -3.4386   -2.6207    2.3647 H         1 <0>         0.0278
     54 H21        -1.8525   -3.1460    1.8164 H         1 <0>         0.0278
     55 H22        -1.1267   -2.9092   -0.4641 H         1 <0>         0.0238
     56 H23        -2.3633   -3.9822   -1.1098 H         1 <0>         0.0238
     57 H24        -2.1819   -2.3617   -1.7686 H         1 <0>         0.0238
     58 H25        -3.2907   -5.0102    2.5643 H         1 <0>         0.0345
     59 H26        -2.8280   -5.2183    0.8653 H         1 <0>         0.0345
     60 H27        -6.3611   -3.8591   -0.2088 H         1 <0>         0.0652
     61 H28         0.8408    6.0266    0.6787 H         1 <0>         0.0377
     62 H29         1.5438    5.2374    2.0871 H         1 <0>         0.0377
     63 H30         2.9641    4.9610    0.0504 H         1 <0>         0.0270
     64 H31         1.6487    4.1395   -0.7839 H         1 <0>         0.0270
     65 H32         1.6858    2.3186    0.9420 H         1 <0>         0.0265
     66 H33         2.9642    3.1654    1.8017 H         1 <0>         0.0265
     67 H34         3.1585    2.0379   -1.0308 H         1 <0>         0.0265
     68 H35         4.4417    2.9315   -0.2198 H         1 <0>         0.0265
     69 H36         3.2552    0.2895    0.7734 H         1 <0>         0.0265
     70 H37         4.5604    1.1818    1.5586 H         1 <0>         0.0265
     71 H38         4.6620    0.0727   -1.2965 H         1 <0>         0.0265
     72 H39         5.9689    0.9385   -0.4948 H         1 <0>         0.0265
     73 H40         6.1035   -0.8589    1.2287 H         1 <0>         0.0265
     74 H41         4.7846   -1.7131    0.4437 H         1 <0>         0.0265
     75 H42         6.1973   -1.9846   -1.6057 H         1 <0>         0.0265
     76 H43         7.5281   -1.1749   -0.7853 H         1 <0>         0.0265
     77 H44         7.6020   -2.9767    0.9288 H         1 <0>         0.0263
     78 H45         6.2126   -3.7692    0.1827 H         1 <0>         0.0263
     79 H46         7.5183   -4.1114   -1.9213 H         1 <0>         0.0230
     80 H47         8.9190   -3.3116   -1.1806 H         1 <0>         0.0230
     81 H48         8.3244   -4.8471   -0.5255 H         1 <0>         0.0230
@<TRIPOS>BOND
     1    1   11 1
     2    1   23 1
     3    2   22 2
     4    3   23 2
     5    4    5 1
     6    4    6 1
     7    4   12 1
     8    4   34 1
     9    5    9 1
    10    5   11 1
    11    5   16 1
    12    6    7 1
    13    6   13 1
    14    6   35 1
    15    7    8 1
    16    7   10 1
    17    7   36 1
    18    8   15 1
    19    8   18 1
    20    8   19 1
    21    9   10 1
    22    9   37 1
    23    9   38 1
    24   10   39 1
    25   10   40 1
    26   11   14 1
    27   11   41 1
    28   12   14 1
    29   12   42 1
    30   12   43 1
    31   13   17 1
    32   13   44 1
    33   13   45 1
    34   14   46 1
    35   14   47 1
    36   15   17 1
    37   15   21 2
    38   16   48 1
    39   16   49 1
    40   16   50 1
    41   17   51 1
    42   17   52 1
    43   18   20 1
    44   18   53 1
    45   18   54 1
    46   19   55 1
    47   19   56 1
    48   19   57 1
    49   20   22 1
    50   20   58 1
    51   20   59 1
    52   21   22 1
    53   21   60 1
    54   23   24 1
    55   24   25 1
    56   24   61 1
    57   24   62 1
    58   25   26 1
    59   25   63 1
    60   25   64 1
    61   26   27 1
    62   26   65 1
    63   26   66 1
    64   27   28 1
    65   27   67 1
    66   27   68 1
    67   28   29 1
    68   28   69 1
    69   28   70 1
    70   29   30 1
    71   29   71 1
    72   29   72 1
    73   30   31 1
    74   30   73 1
    75   30   74 1
    76   31   32 1
    77   31   75 1
    78   31   76 1
    79   32   33 1
    80   32   77 1
    81   32   78 1
    82   33   79 1
    83   33   80 1
    84   33   81 1
