@<TRIPOS>MOLECULE
DB13279
   53    54     0     0     0
SMALL
USER_CHARGES

@<TRIPOS>ATOM
      1 O1          0.6326   -1.4501   -0.1042 O.3       1 <0>        -0.4218
      2 O2         -1.1887   -2.6658   -0.7009 O.2       1 <0>        -0.2449
      3 O3          4.5423    0.9817    1.1193 O.3       1 <0>        -0.4807
      4 O4          7.5536   -0.5807   -0.0138 O.3       1 <0>        -0.4626
      5 O5          7.1378    1.5685    0.7188 O.2       1 <0>        -0.2470
      6 N1         -5.1929   -0.9073   -0.3662 N.3       1 <0>        -0.3025
      7 C1         -3.8277   -0.7075    0.1070 C.3       1 <0>         0.0031
      8 C2         -2.8982   -0.5156   -1.0798 C.3       1 <0>        -0.0078
      9 C3         -1.4797   -0.3029   -0.6157 C.2       1 <0>         0.0418
     10 C4         -0.9299    0.8989   -0.3396 C.2       1 <0>        -0.0298
     11 C5         -5.9916   -1.6031    0.6442 C.3       1 <0>        -0.0039
     12 C6         -5.8119    0.3742   -0.7087 C.3       1 <0>        -0.0039
     13 C7          0.4946    0.9742    0.0455 C.ar      1 <0>         0.0210
     14 C8          1.2265   -0.2047    0.1514 C.ar      1 <0>         0.1428
     15 C9         -0.6930   -1.5636   -0.4872 C.2       1 <0>         0.3407
     16 C10        -1.6941    2.1989   -0.3840 C.3       1 <0>        -0.0386
     17 C11        -6.1085   -0.7788    1.9150 C.3       1 <0>        -0.0524
     18 C12        -7.2118    0.1766   -1.2650 C.3       1 <0>        -0.0524
     19 C13         1.1744    2.1744    0.3064 C.ar      1 <0>        -0.0474
     20 C14         2.5769   -0.2225    0.5099 C.ar      1 <0>         0.0231
     21 C15         3.2281    0.9775    0.7697 C.ar      1 <0>         0.1248
     22 C16         2.5276    2.1758    0.6664 C.ar      1 <0>        -0.0191
     23 C17         5.3561   -0.0714    0.6040 C.3       1 <0>         0.1858
     24 C18         6.7676    0.4322    0.4561 C.2       1 <0>         0.3451
     25 C19         8.9331   -0.2513   -0.2063 C.3       1 <0>         0.0898
     26 C20         9.6633   -1.4710   -0.7264 C.3       1 <0>        -0.0306
     27 H1         -3.4842   -1.5937    0.6582 H         1 <0>         0.0430
     28 H2         -3.7474    0.1425    0.7969 H         1 <0>         0.0430
     29 H3         -2.9578   -1.3817   -1.7525 H         1 <0>         0.0328
     30 H4         -3.1997    0.3263   -1.7113 H         1 <0>         0.0328
     31 H5         -6.9829   -1.8776    0.2684 H         1 <0>         0.0424
     32 H6         -5.5175   -2.5643    0.8820 H         1 <0>         0.0424
     33 H7         -5.8229    1.0997    0.1125 H         1 <0>         0.0424
     34 H8         -5.2384    0.8516   -1.5113 H         1 <0>         0.0424
     35 H9         -2.7622    2.0723   -0.5763 H         1 <0>         0.0278
     36 H10        -1.6241    2.7215    0.5767 H         1 <0>         0.0278
     37 H11        -1.3009    2.8496   -1.1725 H         1 <0>         0.0278
     38 H12        -6.6384   -1.3752    2.6679 H         1 <0>         0.0242
     39 H13        -6.6991    0.1327    1.7881 H         1 <0>         0.0242
     40 H14        -5.1442   -0.5204    2.3611 H         1 <0>         0.0242
     41 H15        -7.9410   -0.0771   -0.4898 H         1 <0>         0.0242
     42 H16        -7.5571    1.1082   -1.7272 H         1 <0>         0.0242
     43 H17        -7.2342   -0.5975   -2.0400 H         1 <0>         0.0242
     44 H18         0.6740    3.1366    0.2360 H         1 <0>         0.0626
     45 H19         3.0760   -1.1829    0.5988 H         1 <0>         0.0691
     46 H20         3.0272    3.1208    0.8636 H         1 <0>         0.0654
     47 H21         5.0290   -0.3841   -0.3954 H         1 <0>         0.0815
     48 H22         5.3505   -0.9078    1.3106 H         1 <0>         0.0815
     49 H23         9.0154    0.5666   -0.9307 H         1 <0>         0.0694
     50 H24         9.3700    0.0628    0.7483 H         1 <0>         0.0694
     51 H25         9.5745   -2.3035   -0.0206 H         1 <0>         0.0262
     52 H26         9.2257   -1.8079   -1.6721 H         1 <0>         0.0262
     53 H27        10.7233   -1.2540   -0.8851 H         1 <0>         0.0262
@<TRIPOS>BOND
     1    1   14 1
     2    1   15 1
     3    2   15 2
     4    3   21 1
     5    3   23 1
     6    4   24 1
     7    4   25 1
     8    5   24 2
     9    6    7 1
    10    6   11 1
    11    6   12 1
    12    7    8 1
    13    7   27 1
    14    7   28 1
    15    8    9 1
    16    8   29 1
    17    8   30 1
    18    9   10 2
    19    9   15 1
    20   10   13 1
    21   10   16 1
    22   11   17 1
    23   11   31 1
    24   11   32 1
    25   12   18 1
    26   12   33 1
    27   12   34 1
    28   13   14 ar
    29   13   19 ar
    30   14   20 ar
    31   16   35 1
    32   16   36 1
    33   16   37 1
    34   17   38 1
    35   17   39 1
    36   17   40 1
    37   18   41 1
    38   18   42 1
    39   18   43 1
    40   19   22 ar
    41   19   44 1
    42   20   21 ar
    43   20   45 1
    44   21   22 ar
    45   22   46 1
    46   23   24 1
    47   23   47 1
    48   23   48 1
    49   25   26 1
    50   25   49 1
    51   25   50 1
    52   26   51 1
    53   26   52 1
    54   26   53 1
