@<TRIPOS>MOLECULE
DB13246
   47    51     0     0     0
SMALL
USER_CHARGES

@<TRIPOS>ATOM
      1 N1         -2.3437   -1.9740    0.9162 N.3       1 <0>        -0.3005
      2 N2          0.3644   -0.0564   -0.5190 N.pl3     1 <0>        -0.2950
      3 C1         -2.0568    0.3641   -0.1886 C.3       1 <0>        -0.0186
      4 C2         -0.9833   -0.6235   -0.6868 C.3       1 <0>         0.0442
      5 C3         -3.4230   -0.2496   -0.5402 C.3       1 <0>        -0.0356
      6 C4         -1.9913    0.4605    1.3467 C.3       1 <0>        -0.0356
      7 C5         -1.1193   -1.9524    0.0817 C.3       1 <0>         0.0181
      8 C6         -3.5151   -1.6597    0.0682 C.3       1 <0>        -0.0007
      9 C7         -2.2168   -0.9317    1.9580 C.3       1 <0>        -0.0007
     10 C8          0.4036    1.3601   -0.5925 C.ar      1 <0>         0.0374
     11 C9          1.4582   -0.9633   -0.4529 C.ar      1 <0>         0.0374
     12 C10         1.1633    2.1252    0.3082 C.ar      1 <0>        -0.0257
     13 C11         2.7249   -0.6459    0.0951 C.ar      1 <0>        -0.0257
     14 C12         1.9650    1.4514    1.3843 C.3       1 <0>        -0.0219
     15 C13         3.1033    0.6604    0.7607 C.3       1 <0>        -0.0219
     16 C14        -0.3360    2.0503   -1.5775 C.ar      1 <0>        -0.0401
     17 C15         1.3174   -2.2643   -1.0070 C.ar      1 <0>        -0.0401
     18 C16         1.1722    3.5285    0.2174 C.ar      1 <0>        -0.0568
     19 C17         3.7730   -1.5984    0.0391 C.ar      1 <0>        -0.0568
     20 C18        -0.3212    3.4438   -1.6631 C.ar      1 <0>        -0.0600
     21 C19         2.3576   -3.1964   -1.0341 C.ar      1 <0>        -0.0600
     22 C20         0.4334    4.1840   -0.7635 C.ar      1 <0>        -0.0614
     23 C21         3.5925   -2.8607   -0.5133 C.ar      1 <0>        -0.0614
     24 H1         -2.1267    1.3685   -0.5861 H         1 <0>         0.0320
     25 H2         -1.1521   -0.8144   -1.7568 H         1 <0>         0.0519
     26 H3         -1.2289   -2.7997   -0.6052 H         1 <0>         0.0445
     27 H4         -0.3086   -2.1833    0.7802 H         1 <0>         0.0445
     28 H5         -3.5513   -0.3005   -1.6281 H         1 <0>         0.0281
     29 H6         -4.2327    0.3774   -0.1467 H         1 <0>         0.0281
     30 H7         -2.7740    1.1409    1.7059 H         1 <0>         0.0281
     31 H8         -1.0427    0.8717    1.6979 H         1 <0>         0.0281
     32 H9         -4.4347   -1.7498    0.6598 H         1 <0>         0.0427
     33 H10        -3.6059   -2.4074   -0.7298 H         1 <0>         0.0427
     34 H11        -1.3891   -1.1803    2.6340 H         1 <0>         0.0427
     35 H12        -3.1160   -0.9254    2.5869 H         1 <0>         0.0427
     36 H13         2.3883    2.2073    2.0578 H         1 <0>         0.0317
     37 H14         1.3208    0.8178    2.0052 H         1 <0>         0.0317
     38 H15         3.8056    0.4357    1.5753 H         1 <0>         0.0317
     39 H16         3.6494    1.2733    0.0313 H         1 <0>         0.0317
     40 H17        -0.8819    1.5087   -2.3494 H         1 <0>         0.0636
     41 H18         0.4575   -2.5438   -1.6085 H         1 <0>         0.0636
     42 H19         1.7598    4.1207    0.9148 H         1 <0>         0.0621
     43 H20         4.7534   -1.3510    0.4433 H         1 <0>         0.0621
     44 H21        -0.8868    3.9456   -2.4425 H         1 <0>         0.0618
     45 H22         2.2090   -4.1629   -1.5065 H         1 <0>         0.0618
     46 H23         0.4513    5.2676   -0.8268 H         1 <0>         0.0618
     47 H24         4.4143   -3.5689   -0.5433 H         1 <0>         0.0618
@<TRIPOS>BOND
     1    1    7 1
     2    1    8 1
     3    1    9 1
     4    2    4 1
     5    2   10 1
     6    2   11 1
     7    3    4 1
     8    3    5 1
     9    3    6 1
    10    3   24 1
    11    4    7 1
    12    4   25 1
    13    5    8 1
    14    5   28 1
    15    5   29 1
    16    6    9 1
    17    6   30 1
    18    6   31 1
    19    7   26 1
    20    7   27 1
    21    8   32 1
    22    8   33 1
    23    9   34 1
    24    9   35 1
    25   10   12 ar
    26   10   16 ar
    27   11   13 ar
    28   11   17 ar
    29   12   14 1
    30   12   18 ar
    31   13   15 1
    32   13   19 ar
    33   14   15 1
    34   14   36 1
    35   14   37 1
    36   15   38 1
    37   15   39 1
    38   16   20 ar
    39   16   40 1
    40   17   21 ar
    41   17   41 1
    42   18   22 ar
    43   18   42 1
    44   19   23 ar
    45   19   43 1
    46   20   22 ar
    47   20   44 1
    48   21   23 ar
    49   21   45 1
    50   22   46 1
    51   23   47 1
