@<TRIPOS>MOLECULE
DB13720
   45    47     0     0     0
SMALL
USER_CHARGES

@<TRIPOS>ATOM
      1 N1          3.1022    0.0083    0.0716 N.4       1 <0>         0.2395
      2 C1          2.2521   -1.2596    0.2566 C.3       1 <0>        -0.0268
      3 C2          2.2446    1.2670    0.2815 C.3       1 <0>        -0.0268
      4 C3          1.0208   -1.2566   -0.6460 C.3       1 <0>         0.0098
      5 C4          1.0136    1.2748   -0.6212 C.3       1 <0>         0.0098
      6 C5          0.2248    0.0052   -0.4656 C.2       1 <0>        -0.0513
      7 C6          3.7894    0.0238   -1.2929 C.3       1 <0>        -0.0415
      8 C7          4.2047    0.0010    1.1379 C.3       1 <0>        -0.0415
      9 C8         -1.0821   -0.0014   -0.1661 C.2       1 <0>        -0.0111
     10 C9         -1.7600    1.2657   -0.0129 C.ar      1 <0>        -0.0174
     11 C10        -1.7465   -1.2755   -0.0112 C.ar      1 <0>        -0.0174
     12 C11        -1.8212    1.8876    1.2395 C.ar      1 <0>        -0.0540
     13 C12        -2.3418   -1.9008   -1.1129 C.ar      1 <0>        -0.0540
     14 C13        -2.3620    1.8832   -1.1153 C.ar      1 <0>        -0.0540
     15 C14        -1.8012   -1.8965    1.2419 C.ar      1 <0>        -0.0540
     16 C15        -2.4758    3.1103    1.3876 C.ar      1 <0>        -0.0612
     17 C16        -2.9833   -3.1302   -0.9634 C.ar      1 <0>        -0.0612
     18 C17        -3.0164    3.1061   -0.9671 C.ar      1 <0>        -0.0612
     19 C18        -2.4427   -3.1261    1.3913 C.ar      1 <0>        -0.0612
     20 C19        -3.0732    3.7196    0.2843 C.ar      1 <0>        -0.0617
     21 C20        -3.0338   -3.7428    0.2885 C.ar      1 <0>        -0.0617
     22 H1          1.9530   -1.2952    1.3117 H         1 <0>         0.0818
     23 H2          2.8955   -2.1209    0.0438 H         1 <0>         0.0818
     24 H3          2.8830    2.1362    0.0860 H         1 <0>         0.0818
     25 H4          1.9452    1.2801    1.3370 H         1 <0>         0.0818
     26 H5          0.4748   -2.1816   -0.4455 H         1 <0>         0.0362
     27 H6          1.3230   -1.3293   -1.6978 H         1 <0>         0.0362
     28 H7          1.3152    1.3700   -1.6713 H         1 <0>         0.0362
     29 H8          0.4622    2.1924   -0.4024 H         1 <0>         0.0362
     30 H9          4.4130   -0.8716   -1.3736 H         1 <0>         0.0778
     31 H10         3.0400    0.0293   -2.0856 H         1 <0>         0.0778
     32 H11         4.4075    0.9244   -1.3559 H         1 <0>         0.0778
     33 H12         4.8105    0.9036    1.0141 H         1 <0>         0.0778
     34 H13         3.7343   -0.0102    2.1255 H         1 <0>         0.0778
     35 H14         4.8158   -0.8956    0.9963 H         1 <0>         0.0778
     36 H15        -1.3598    1.4285    2.1110 H         1 <0>         0.0624
     37 H16        -2.3117   -1.4389   -2.0973 H         1 <0>         0.0624
     38 H17        -2.3272    1.4206   -2.0992 H         1 <0>         0.0624
     39 H18        -1.3449   -1.4315    2.1129 H         1 <0>         0.0624
     40 H19        -2.5196    3.5884    2.3618 H         1 <0>         0.0618
     41 H20        -3.4432   -3.6109   -1.8219 H         1 <0>         0.0618
     42 H21        -3.4814    3.5809   -1.8261 H         1 <0>         0.0618
     43 H22        -2.4816   -3.6035    2.3659 H         1 <0>         0.0618
     44 H23        -3.5827    4.6719    0.3995 H         1 <0>         0.0618
     45 H24        -3.5330   -4.7003    0.4048 H         1 <0>         0.0618
@<TRIPOS>BOND
     1    1    2 1
     2    1    3 1
     3    1    7 1
     4    1    8 1
     5    2    4 1
     6    2   22 1
     7    2   23 1
     8    3    5 1
     9    3   24 1
    10    3   25 1
    11    4    6 1
    12    4   26 1
    13    4   27 1
    14    5    6 1
    15    5   28 1
    16    5   29 1
    17    6    9 2
    18    7   30 1
    19    7   31 1
    20    7   32 1
    21    8   33 1
    22    8   34 1
    23    8   35 1
    24    9   10 1
    25    9   11 1
    26   10   12 ar
    27   10   14 ar
    28   11   13 ar
    29   11   15 ar
    30   12   16 ar
    31   12   36 1
    32   13   17 ar
    33   13   37 1
    34   14   18 ar
    35   14   38 1
    36   15   19 ar
    37   15   39 1
    38   16   20 ar
    39   16   40 1
    40   17   21 ar
    41   17   41 1
    42   18   20 ar
    43   18   42 1
    44   19   21 ar
    45   19   43 1
    46   20   44 1
    47   21   45 1
