@<TRIPOS>MOLECULE
DB13908
   31    31     0     0     0
SMALL
USER_CHARGES

@<TRIPOS>ATOM
      1 O1          1.2017   -2.4085    0.3269 O.3       1 <0>        -0.5065
      2 C1         -1.3239    0.0125   -0.1114 C.3       1 <0>        -0.0490
      3 C2         -0.3231   -0.1019    1.0442 C.3       1 <0>        -0.0242
      4 C3         -2.7824    0.0137    0.3568 C.3       1 <0>        -0.0530
      5 C4          1.1194   -0.0301    0.6103 C.ar      1 <0>        -0.0059
      6 C5         -3.7428    0.1554   -0.8247 C.3       1 <0>        -0.0559
      7 C6          1.8053   -1.1882    0.2741 C.ar      1 <0>         0.1203
      8 C7          1.7383    1.2106    0.5548 C.ar      1 <0>        -0.0549
      9 C8         -5.1908    0.1963   -0.3633 C.3       1 <0>        -0.0653
     10 C9          3.7721    0.1375   -0.1860 C.ar      1 <0>        -0.0470
     11 C10         3.1389   -1.1040   -0.1262 C.ar      1 <0>        -0.0170
     12 C11         3.0717    1.2947    0.1545 C.ar      1 <0>        -0.0584
     13 C12         5.1979    0.2281   -0.6136 C.3       1 <0>        -0.0396
     14 H1         -1.1691   -0.8151   -0.8150 H         1 <0>         0.0268
     15 H2         -1.1261    0.9354   -0.6720 H         1 <0>         0.0268
     16 H3         -0.5137   -1.0055    1.6358 H         1 <0>         0.0314
     17 H4         -0.5112    0.7190    1.7507 H         1 <0>         0.0314
     18 H5         -2.9948   -0.9163    0.8976 H         1 <0>         0.0265
     19 H6         -2.9389    0.8407    1.0599 H         1 <0>         0.0265
     20 H7         -3.6077   -0.6839   -1.5167 H         1 <0>         0.0263
     21 H8         -3.5181    1.0735   -1.3799 H         1 <0>         0.0263
     22 H9          1.2020    2.1189    0.8145 H         1 <0>         0.0622
     23 H10        -5.3663    1.0460    0.3041 H         1 <0>         0.0230
     24 H11        -5.8601    0.2962   -1.2237 H         1 <0>         0.0230
     25 H12        -5.4583   -0.7213    0.1705 H         1 <0>         0.0230
     26 H13         3.6796   -2.0092   -0.3923 H         1 <0>         0.0657
     27 H14         3.5531    2.2680    0.1096 H         1 <0>         0.0620
     28 H15         5.7545   -0.6700   -0.3249 H         1 <0>         0.0278
     29 H16         5.2573    0.3438   -1.7004 H         1 <0>         0.0278
     30 H17         5.6990    1.0805   -0.1424 H         1 <0>         0.0278
     31 H18         0.2365   -2.3167    0.3283 H         1 <0>         0.2921
@<TRIPOS>BOND
     1    1    7 1
     2    1   31 1
     3    2    3 1
     4    2    4 1
     5    2   14 1
     6    2   15 1
     7    3    5 1
     8    3   16 1
     9    3   17 1
    10    4    6 1
    11    4   18 1
    12    4   19 1
    13    5    7 ar
    14    5    8 ar
    15    6    9 1
    16    6   20 1
    17    6   21 1
    18    7   11 ar
    19    8   12 ar
    20    8   22 1
    21    9   23 1
    22    9   24 1
    23    9   25 1
    24   10   11 ar
    25   10   12 ar
    26   10   13 1
    27   11   26 1
    28   12   27 1
    29   13   28 1
    30   13   29 1
    31   13   30 1
