@<TRIPOS>MOLECULE
DB13245
   24    23     0     0     0
SMALL
USER_CHARGES

@<TRIPOS>ATOM
      1 S1          0.4665   -0.8911    1.2552 S.3       1 <0>        -0.0271
      2 S2         -0.2509   -0.7881   -0.6757 S.3       1 <0>        -0.0271
      3 S3          1.7395    1.5996    2.2731 S.2       1 <0>        -0.0271
      4 S4         -1.0041    2.0877   -0.8249 S.2       1 <0>        -0.0271
      5 N1          2.8265    0.0320    0.2797 N.pl3     1 <0>        -0.3245
      6 N2         -2.7827    0.0722   -0.2019 N.pl3     1 <0>        -0.3245
      7 C1          3.6437    1.0712   -0.3541 C.3       1 <0>         0.0013
      8 C2          3.1678   -1.3249   -0.1546 C.3       1 <0>         0.0013
      9 C3         -3.8981    1.0142   -0.0777 C.3       1 <0>         0.0013
     10 C4         -3.1686   -1.3234    0.0274 C.3       1 <0>         0.0013
     11 C5          1.7939    0.2895    1.2042 C.2       1 <0>         0.1195
     12 C6         -1.4773    0.4902   -0.5310 C.2       1 <0>         0.1195
     13 H1          3.2476    2.0688   -0.1536 H         1 <0>         0.0428
     14 H2          3.6467    0.9098   -1.4364 H         1 <0>         0.0428
     15 H3          4.6639    0.9993    0.0333 H         1 <0>         0.0428
     16 H4          2.7600   -2.0902    0.5086 H         1 <0>         0.0428
     17 H5          4.2576   -1.4314   -0.1495 H         1 <0>         0.0428
     18 H6          2.8008   -1.4754   -1.1737 H         1 <0>         0.0428
     19 H7         -3.5959    2.0611   -0.0891 H         1 <0>         0.0428
     20 H8         -4.4135    0.8209    0.8688 H         1 <0>         0.0428
     21 H9         -4.5896    0.8396   -0.9079 H         1 <0>         0.0428
     22 H10        -4.2237   -1.4632   -0.2286 H         1 <0>         0.0428
     23 H11        -3.0223   -1.5487    1.0877 H         1 <0>         0.0428
     24 H12        -2.5879   -2.0198   -0.5796 H         1 <0>         0.0428
@<TRIPOS>BOND
     1    1    2 1
     2    1   11 1
     3    2   12 1
     4    3   11 2
     5    4   12 2
     6    5    7 1
     7    5    8 1
     8    5   11 1
     9    6    9 1
    10    6   10 1
    11    6   12 1
    12    7   13 1
    13    7   14 1
    14    7   15 1
    15    8   16 1
    16    8   17 1
    17    8   18 1
    18    9   19 1
    19    9   20 1
    20    9   21 1
    21   10   22 1
    22   10   23 1
    23   10   24 1
