@<TRIPOS>MOLECULE
DB13966
   53    52     0     0     0
SMALL
USER_CHARGES

@<TRIPOS>ATOM
      1 O1         -6.7205   -0.2434   -0.3072 O.3       1 <0>        -0.4619
      2 O2         -5.5045    0.2483    1.5895 O.2       1 <0>        -0.2508
      3 C1          2.0493    0.1620   -0.1998 C.3       1 <0>        -0.0531
      4 C2          0.9715    1.1903    0.1509 C.3       1 <0>        -0.0531
      5 C3          3.4401    0.6584    0.2018 C.3       1 <0>        -0.0531
      6 C4         -0.4232    0.6830   -0.2198 C.3       1 <0>        -0.0531
      7 C5          4.5558   -0.3466   -0.0987 C.3       1 <0>        -0.0531
      8 C6         -1.4972    1.7253    0.1009 C.3       1 <0>        -0.0530
      9 C7          5.9540    0.1781    0.2346 C.3       1 <0>        -0.0531
     10 C8         -2.8870    1.2301   -0.3007 C.3       1 <0>        -0.0526
     11 C9          7.0330   -0.8361   -0.1519 C.3       1 <0>        -0.0533
     12 C10        -4.0208    2.2123    0.0188 C.3       1 <0>        -0.0430
     13 C11         8.4287   -0.3284    0.2097 C.3       1 <0>        -0.0559
     14 C12        -5.4158    1.7072   -0.3526 C.3       1 <0>         0.0449
     15 C13         9.5007   -1.3475   -0.1420 C.3       1 <0>        -0.0653
     16 C14        -5.8531    0.4975    0.4435 C.2       1 <0>         0.3073
     17 C15        -7.2502   -1.4080    0.3341 C.3       1 <0>         0.0975
     18 C16        -8.6536   -1.6730   -0.1891 C.3       1 <0>        -0.0280
     19 C17        -6.3199   -2.5848    0.0830 C.3       1 <0>        -0.0280
     20 H1          2.0292   -0.0431   -1.2767 H         1 <0>         0.0265
     21 H2          1.8376   -0.7834    0.3142 H         1 <0>         0.0265
     22 H3          1.0069    1.4104    1.2249 H         1 <0>         0.0265
     23 H4          1.1756    2.1289   -0.3786 H         1 <0>         0.0265
     24 H5          3.4495    0.8895    1.2742 H         1 <0>         0.0265
     25 H6          3.6513    1.5969   -0.3258 H         1 <0>         0.0265
     26 H7         -0.6348   -0.2446    0.3257 H         1 <0>         0.0265
     27 H8         -0.4532    0.4434   -1.2897 H         1 <0>         0.0265
     28 H9          4.3695   -1.2699    0.4636 H         1 <0>         0.0265
     29 H10         4.5162   -0.6113   -1.1628 H         1 <0>         0.0265
     30 H11        -1.2772    2.6603   -0.4281 H         1 <0>         0.0265
     31 H12        -1.4838    1.9494    1.1742 H         1 <0>         0.0265
     32 H13         6.1298    1.1204   -0.2981 H         1 <0>         0.0265
     33 H14         6.0148    0.3962    1.3076 H         1 <0>         0.0265
     34 H15        -2.8965    1.0182   -1.3774 H         1 <0>         0.0265
     35 H16        -3.0792    0.2768    0.2062 H         1 <0>         0.0265
     36 H17         6.9818   -1.0370   -1.2290 H         1 <0>         0.0265
     37 H18         6.8438   -1.7858    0.3633 H         1 <0>         0.0265
     38 H19        -3.9942    2.4514    1.0892 H         1 <0>         0.0270
     39 H20        -3.8362    3.1509   -0.5176 H         1 <0>         0.0270
     40 H21         8.6329    0.6085   -0.3215 H         1 <0>         0.0263
     41 H22         8.4797   -0.1109    1.2830 H         1 <0>         0.0263
     42 H23        -6.1551    2.4975   -0.1821 H         1 <0>         0.0377
     43 H24        -5.4268    1.4567   -1.4200 H         1 <0>         0.0377
     44 H25         9.3435   -2.2854    0.4000 H         1 <0>         0.0230
     45 H26         9.4976   -1.5654   -1.2148 H         1 <0>         0.0230
     46 H27        10.4904   -0.9633    0.1236 H         1 <0>         0.0230
     47 H28        -7.3392   -1.2443    1.4157 H         1 <0>         0.0728
     48 H29        -8.6438   -1.8255   -1.2740 H         1 <0>         0.0265
     49 H30        -9.0975   -2.5537    0.2851 H         1 <0>         0.0265
     50 H31        -9.3004   -0.8097    0.0008 H         1 <0>         0.0265
     51 H32        -6.1964   -2.7618   -0.9912 H         1 <0>         0.0265
     52 H33        -6.7022   -3.4995    0.5464 H         1 <0>         0.0265
     53 H34        -5.3209   -2.3857    0.4848 H         1 <0>         0.0265
@<TRIPOS>BOND
     1    1   16 1
     2    1   17 1
     3    2   16 2
     4    3    4 1
     5    3    5 1
     6    3   20 1
     7    3   21 1
     8    4    6 1
     9    4   22 1
    10    4   23 1
    11    5    7 1
    12    5   24 1
    13    5   25 1
    14    6    8 1
    15    6   26 1
    16    6   27 1
    17    7    9 1
    18    7   28 1
    19    7   29 1
    20    8   10 1
    21    8   30 1
    22    8   31 1
    23    9   11 1
    24    9   32 1
    25    9   33 1
    26   10   12 1
    27   10   34 1
    28   10   35 1
    29   11   13 1
    30   11   36 1
    31   11   37 1
    32   12   14 1
    33   12   38 1
    34   12   39 1
    35   13   15 1
    36   13   40 1
    37   13   41 1
    38   14   16 1
    39   14   42 1
    40   14   43 1
    41   15   44 1
    42   15   45 1
    43   15   46 1
    44   17   18 1
    45   17   19 1
    46   17   47 1
    47   18   48 1
    48   18   49 1
    49   18   50 1
    50   19   51 1
    51   19   52 1
    52   19   53 1
