@<TRIPOS>MOLECULE
DB13256
   41    44     0     0     0
SMALL
USER_CHARGES

@<TRIPOS>ATOM
      1 Cl1        -0.7118    3.8214    2.4990 Cl        1 <0>        -0.0835
      2 S1          2.7307    0.9199   -1.9220 S.3       1 <0>        -0.0843
      3 N1         -1.0015   -0.5978   -0.5809 N.pl3     1 <0>        -0.2176
      4 N2         -3.8367   -0.7748   -0.3997 N.3       1 <0>        -0.2982
      5 N3          1.1529   -1.3750   -0.4558 N.2       1 <0>        -0.0404
      6 C1         -1.8355    0.3605   -1.3010 C.3       1 <0>         0.0933
      7 C2         -1.6311   -1.8846   -0.2979 C.3       1 <0>         0.0933
      8 C3         -3.1792    0.5265   -0.5895 C.3       1 <0>         0.0348
      9 C4         -2.9795   -1.6696    0.3916 C.3       1 <0>         0.0348
     10 C5          0.3137   -0.3771   -0.3551 C.2       1 <0>         0.3224
     11 C6         -5.1367   -0.6039    0.2476 C.3       1 <0>        -0.0125
     12 C7          0.6893    1.0279   -0.0103 C.ar      1 <0>         0.0807
     13 C8          1.7099    1.7119   -0.6890 C.ar      1 <0>         0.0278
     14 C9          2.5363   -1.2831   -0.2221 C.ar      1 <0>         0.1900
     15 C10        -0.0598    1.6858    0.9751 C.ar      1 <0>        -0.0274
     16 C11         3.3846   -0.3651   -0.8661 C.ar      1 <0>         0.0634
     17 C12         1.9627    3.0537   -0.3741 C.ar      1 <0>        -0.0458
     18 C13         0.2074    3.0187    1.2848 C.ar      1 <0>         0.0419
     19 C14         1.2144    3.7027    0.6088 C.ar      1 <0>        -0.0423
     20 C15         3.1088   -2.2418    0.6273 C.ar      1 <0>        -0.0097
     21 C16         4.7690   -0.4109   -0.6485 C.ar      1 <0>        -0.0438
     22 C17         4.4862   -2.2798    0.8468 C.ar      1 <0>        -0.0576
     23 C18         5.3161   -1.3655    0.2070 C.ar      1 <0>        -0.0604
     24 H1         -2.0037   -0.0240   -2.3158 H         1 <0>         0.0739
     25 H2         -1.3726    1.3434   -1.4331 H         1 <0>         0.0739
     26 H3         -1.0048   -2.5009    0.3582 H         1 <0>         0.0739
     27 H4         -1.7635   -2.4377   -1.2358 H         1 <0>         0.0739
     28 H5         -3.0338    1.0307    0.3746 H         1 <0>         0.0463
     29 H6         -3.8143    1.1759   -1.2042 H         1 <0>         0.0463
     30 H7         -3.4656   -2.6453    0.5109 H         1 <0>         0.0463
     31 H8         -2.8163   -1.2582    1.3969 H         1 <0>         0.0463
     32 H9         -5.7895    0.0298   -0.3630 H         1 <0>         0.0391
     33 H10        -5.0492   -0.1519    1.2422 H         1 <0>         0.0391
     34 H11        -5.6443   -1.5695    0.3511 H         1 <0>         0.0391
     35 H12        -0.8433    1.1569    1.5133 H         1 <0>         0.0641
     36 H13         2.7490    3.6077   -0.8821 H         1 <0>         0.0629
     37 H14         1.4317    4.7428    0.8385 H         1 <0>         0.0632
     38 H15         2.4771   -2.9771    1.1215 H         1 <0>         0.0661
     39 H16         5.4345    0.2996   -1.1336 H         1 <0>         0.0630
     40 H17         4.9097   -3.0279    1.5104 H         1 <0>         0.0619
     41 H18         6.3888   -1.3943    0.3741 H         1 <0>         0.0618
@<TRIPOS>BOND
     1    1   18 1
     2    2   13 1
     3    2   16 1
     4    3    6 1
     5    3    7 1
     6    3   10 1
     7    4    8 1
     8    4    9 1
     9    4   11 1
    10    5   10 2
    11    5   14 1
    12    6    8 1
    13    6   24 1
    14    6   25 1
    15    7    9 1
    16    7   26 1
    17    7   27 1
    18    8   28 1
    19    8   29 1
    20    9   30 1
    21    9   31 1
    22   10   12 1
    23   11   32 1
    24   11   33 1
    25   11   34 1
    26   12   13 ar
    27   12   15 ar
    28   13   17 ar
    29   14   16 ar
    30   14   20 ar
    31   15   18 ar
    32   15   35 1
    33   16   21 ar
    34   17   19 ar
    35   17   36 1
    36   18   19 ar
    37   19   37 1
    38   20   22 ar
    39   20   38 1
    40   21   23 ar
    41   21   39 1
    42   22   23 ar
    43   22   40 1
    44   23   41 1
