@<TRIPOS>MOLECULE
DB13155
   40    42     0     0     0
SMALL
USER_CHARGES

@<TRIPOS>ATOM
      1 O1          1.1864    0.5729   -0.3521 O.3       1 <0>        -0.3313
      2 O2          0.0922   -1.2815   -1.2509 O.3       1 <0>        -0.4571
      3 O3          4.8119   -1.3538   -0.4552 O.3       1 <0>        -0.3864
      4 O4          4.4842    1.0065    1.1810 O.3       1 <0>        -0.3865
      5 O5          2.3055   -2.8997   -0.5499 O.3       1 <0>        -0.3829
      6 O6          0.7577    2.9893    0.8862 O.3       1 <0>        -0.3924
      7 O7         -5.0400    0.6504   -0.4603 O.3       1 <0>        -0.4220
      8 O8         -1.1626    0.2221   -3.2197 O.3       1 <0>        -0.5032
      9 O9         -6.8925    0.8492    0.8714 O.2       1 <0>        -0.2452
     10 C1          3.5688   -0.9582    0.1266 C.3       1 <0>         0.1152
     11 C2          3.5463    0.5686    0.2011 C.3       1 <0>         0.1120
     12 C3          2.4160   -1.4876   -0.7264 C.3       1 <0>         0.1454
     13 C4          2.1509    1.0736    0.5754 C.3       1 <0>         0.1140
     14 C5          1.0870   -0.8491   -0.3231 C.3       1 <0>         0.2310
     15 C6          2.0737    2.5967    0.5416 C.3       1 <0>         0.0731
     16 C7         -1.1752   -0.8052   -1.0559 C.ar      1 <0>         0.1660
     17 C8         -1.8284   -1.0839    0.1454 C.ar      1 <0>        -0.0055
     18 C9         -1.8010   -0.0506   -2.0476 C.ar      1 <0>         0.1621
     19 C10        -3.1220   -0.6037    0.3598 C.ar      1 <0>         0.0213
     20 C11        -3.7348    0.1483   -0.6390 C.ar      1 <0>         0.1427
     21 C12        -3.0916    0.4320   -1.8421 C.ar      1 <0>         0.0265
     22 C13        -3.8510   -0.8616    1.5898 C.2       1 <0>        -0.0442
     23 C14        -5.0872   -0.3828    1.7511 C.2       1 <0>         0.0236
     24 C15        -5.7573    0.4157    0.7080 C.2       1 <0>         0.3372
     25 H1          3.5417   -1.4013    1.1298 H         1 <0>         0.0648
     26 H2          3.8614    0.9852   -0.7635 H         1 <0>         0.0647
     27 H3          2.6206   -1.3160   -1.7900 H         1 <0>         0.0683
     28 H4          1.8688    0.7424    1.5841 H         1 <0>         0.0647
     29 H5          0.8131   -1.1826    0.6862 H         1 <0>         0.1084
     30 H6          2.7671    3.0534    1.2536 H         1 <0>         0.0584
     31 H7          2.2873    2.9868   -0.4590 H         1 <0>         0.0584
     32 H8          5.5223   -0.9914    0.1013 H         1 <0>         0.2100
     33 H9          4.2088    0.6476    2.0418 H         1 <0>         0.2100
     34 H10         2.1253   -3.0732    0.3898 H         1 <0>         0.2102
     35 H11         0.1501    2.5712    0.2521 H         1 <0>         0.2095
     36 H12        -1.3456   -1.6893    0.9084 H         1 <0>         0.0662
     37 H13        -3.5944    1.0215   -2.6033 H         1 <0>         0.0692
     38 H14        -3.3771   -1.4463    2.3704 H         1 <0>         0.0627
     39 H15        -1.7489    0.7556   -3.7832 H         1 <0>         0.2923
     40 H16        -5.6376   -0.5713    2.6664 H         1 <0>         0.0689
@<TRIPOS>BOND
     1    1   13 1
     2    1   14 1
     3    2   14 1
     4    2   16 1
     5    3   10 1
     6    3   32 1
     7    4   11 1
     8    4   33 1
     9    5   12 1
    10    5   34 1
    11    6   15 1
    12    6   35 1
    13    7   20 1
    14    7   24 1
    15    8   18 1
    16    8   39 1
    17    9   24 2
    18   10   11 1
    19   10   12 1
    20   10   25 1
    21   11   13 1
    22   11   26 1
    23   12   14 1
    24   12   27 1
    25   13   15 1
    26   13   28 1
    27   14   29 1
    28   15   30 1
    29   15   31 1
    30   16   17 ar
    31   16   18 ar
    32   17   19 ar
    33   17   36 1
    34   18   21 ar
    35   19   20 ar
    36   19   22 1
    37   20   21 ar
    38   21   37 1
    39   22   23 2
    40   22   38 1
    41   23   24 1
    42   23   40 1
