@<TRIPOS>MOLECULE
DB13273
   50    51     0     0     0
SMALL
USER_CHARGES

@<TRIPOS>ATOM
      1 S1          4.9067    0.7395   -1.0254 S.o2      1 <0>        -0.0033
      2 O1         -0.5704   -2.2044   -1.3711 O.2       1 <0>        -0.2701
      3 O2          1.1030   -3.6347    0.0701 O.3       1 <0>        -0.4944
      4 O3          6.2279    0.1491   -1.1840 O.2       1 <0>        -0.1694
      5 O4          4.3643    1.5904   -2.0757 O.2       1 <0>        -0.1694
      6 N1         -3.9528    0.8147   -0.2063 N.3       1 <0>        -0.2982
      7 N2         -0.3617    0.0778   -1.0085 N.am      1 <0>        -0.3098
      8 C1         -2.5678    0.3652   -0.0086 C.3       1 <0>         0.0260
      9 C2         -2.0507    1.3312    1.0594 C.3       1 <0>        -0.0347
     10 C3         -3.2909    1.8006    1.8119 C.3       1 <0>        -0.0387
     11 C4         -4.4559    1.0915    1.1414 C.3       1 <0>        -0.0007
     12 C5         -1.7262    0.4219   -1.2772 C.3       1 <0>         0.0275
     13 C6         -4.7846   -0.1637   -0.8966 C.3       1 <0>        -0.0036
     14 C7         -6.2208    0.3054   -1.0031 C.3       1 <0>        -0.0523
     15 C8          0.1155   -1.2287   -1.0779 C.2       1 <0>         0.2477
     16 C9          1.5500   -1.4236   -0.7446 C.ar      1 <0>         0.0800
     17 C10         2.4247   -0.3882   -1.0085 C.ar      1 <0>        -0.0212
     18 C11         3.7759   -0.5518   -0.7036 C.ar      1 <0>         0.0891
     19 C12         1.9697   -2.6151   -0.1886 C.ar      1 <0>         0.1323
     20 C13         4.2243   -1.7473   -0.1416 C.ar      1 <0>        -0.0334
     21 C14         3.3212   -2.7788    0.1159 C.ar      1 <0>        -0.0174
     22 C15         4.9139    1.7025    0.4698 C.3       1 <0>         0.0681
     23 C16         5.8551    2.8817    0.3653 C.3       1 <0>        -0.0453
     24 C17         0.4855   -3.6491    1.3552 C.3       1 <0>         0.0788
     25 H1         -2.5492   -0.6522    0.4089 H         1 <0>         0.0478
     26 H2         -1.3442    0.8356    1.7343 H         1 <0>         0.0281
     27 H3         -1.5419    2.2002    0.6245 H         1 <0>         0.0281
     28 H4         -3.3912    2.8883    1.7175 H         1 <0>         0.0278
     29 H5         -3.2337    1.5604    2.8784 H         1 <0>         0.0278
     30 H6         -5.3413    1.7351    1.1420 H         1 <0>         0.0427
     31 H7         -4.6889    0.1685    1.6881 H         1 <0>         0.0427
     32 H8         -1.7272    1.4299   -1.7077 H         1 <0>         0.0477
     33 H9         -2.1176   -0.2626   -2.0371 H         1 <0>         0.0477
     34 H10        -4.7593   -1.1406   -0.3972 H         1 <0>         0.0424
     35 H11        -4.4066   -0.3128   -1.9142 H         1 <0>         0.0424
     36 H12         0.2414    0.8284   -0.6894 H         1 <0>         0.1491
     37 H13        -6.7828   -0.3696   -1.6579 H         1 <0>         0.0242
     38 H14        -6.2846    1.3100   -1.4352 H         1 <0>         0.0242
     39 H15        -6.7316    0.3084   -0.0350 H         1 <0>         0.0242
     40 H16         2.0979    0.5368   -1.4721 H         1 <0>         0.0645
     41 H17         5.2707   -1.8942    0.1104 H         1 <0>         0.0638
     42 H18         3.8909    2.0471    0.6492 H         1 <0>         0.0501
     43 H19         5.2189    1.0438    1.2884 H         1 <0>         0.0501
     44 H20         3.6775   -3.7068    0.5549 H         1 <0>         0.0655
     45 H21         5.8467    3.4584    1.2952 H         1 <0>         0.0245
     46 H22         6.8824    2.5531    0.1782 H         1 <0>         0.0245
     47 H23         5.5646    3.5499   -0.4517 H         1 <0>         0.0245
     48 H24        -0.0683   -2.7220    1.5340 H         1 <0>         0.0660
     49 H25        -0.2164   -4.4869    1.3883 H         1 <0>         0.0660
     50 H26         1.2379   -3.7922    2.1373 H         1 <0>         0.0660
@<TRIPOS>BOND
     1    1    4 2
     2    1    5 2
     3    1   18 1
     4    1   22 1
     5    2   15 2
     6    3   19 1
     7    3   24 1
     8    6    8 1
     9    6   11 1
    10    6   13 1
    11    7   12 1
    12    7   15 am
    13    7   36 1
    14    8    9 1
    15    8   12 1
    16    8   25 1
    17    9   10 1
    18    9   26 1
    19    9   27 1
    20   10   11 1
    21   10   28 1
    22   10   29 1
    23   11   30 1
    24   11   31 1
    25   12   32 1
    26   12   33 1
    27   13   14 1
    28   13   34 1
    29   13   35 1
    30   14   37 1
    31   14   38 1
    32   14   39 1
    33   15   16 1
    34   16   17 ar
    35   16   19 ar
    36   17   18 ar
    37   17   40 1
    38   18   20 ar
    39   19   21 ar
    40   20   21 ar
    41   20   41 1
    42   21   44 1
    43   22   23 1
    44   22   42 1
    45   22   43 1
    46   23   45 1
    47   23   46 1
    48   23   47 1
    49   24   48 1
    50   24   49 1
    51   24   50 1
