@<TRIPOS>MOLECULE
DB13258
   48    49     0     0     0
SMALL
USER_CHARGES

@<TRIPOS>ATOM
      1 Cl1         2.9285   -2.1560   -3.9625 Cl        1 <0>        -0.0945
      2 Cl2         4.5591   -2.6928   -1.6053 Cl        1 <0>        -0.0945
      3 O1          4.3275    1.2555    0.0225 O.3       1 <0>        -0.3785
      4 O2         -3.8353   -1.5226    1.3300 O.3       1 <0>        -0.4560
      5 O3          3.1007    0.2349   -2.4665 O.2       1 <0>        -0.2726
      6 O4         -6.4086    3.6636   -1.1509 O.3       1 <0>        -0.5760
      7 O5         -7.9180    2.1763   -1.7243 O.2       1 <0>         0.0414
      8 N1          2.1594   -0.5192   -0.4901 N.am      1 <0>        -0.2928
      9 N2         -6.8373    2.4845   -1.1664 N.pl3     1 <0>         0.0796
     10 C1          1.7392   -1.5973    0.3992 C.3       1 <0>         0.0399
     11 C2          1.9656    0.8311    0.0225 C.3       1 <0>         0.0385
     12 C3          0.2584   -1.5772    0.6460 C.ar      1 <0>        -0.0299
     13 C4          3.1609    1.2963    0.8341 C.3       1 <0>         0.0634
     14 C5          2.7581   -0.7044   -1.7407 C.2       1 <0>         0.2487
     15 C6         -0.2348   -1.7433    1.9402 C.ar      1 <0>        -0.0536
     16 C7         -0.6244   -1.3929   -0.4182 C.ar      1 <0>        -0.0536
     17 C8         -2.4929   -1.5402    1.1059 C.ar      1 <0>         0.1285
     18 C9         -1.6103   -1.7247    2.1703 C.ar      1 <0>        -0.0190
     19 C10        -1.9998   -1.3744   -0.1885 C.ar      1 <0>        -0.0190
     20 C11         2.9742   -2.1375   -2.1914 C.3       1 <0>         0.1832
     21 C12         5.4769    1.6833    0.7401 C.3       1 <0>         0.0449
     22 C13        -4.5782   -0.5309    0.7115 C.ar      1 <0>         0.1289
     23 C14         6.6817    1.6177   -0.1741 C.3       1 <0>        -0.0416
     24 C15        -4.1219    0.7872    0.7157 C.ar      1 <0>        -0.0129
     25 C16        -5.7831   -0.8501    0.0852 C.ar      1 <0>        -0.0129
     26 C17        -6.0754    1.4670   -0.5329 C.ar      1 <0>         0.2734
     27 C18        -4.8706    1.7862    0.0935 C.ar      1 <0>         0.0191
     28 C19        -6.5317    0.1489   -0.5369 C.ar      1 <0>         0.0191
     29 H1          2.2813   -1.4510    1.3417 H         1 <0>         0.0514
     30 H2          2.0233   -2.5910    0.0542 H         1 <0>         0.0514
     31 H3          1.8362    1.5063   -0.8317 H         1 <0>         0.0487
     32 H4          1.0526    0.8968    0.6213 H         1 <0>         0.0487
     33 H5          2.9895    2.3228    1.1782 H         1 <0>         0.0575
     34 H6          3.3032    0.6542    1.7108 H         1 <0>         0.0575
     35 H7          0.4411   -1.8890    2.7785 H         1 <0>         0.0622
     36 H8         -0.2629   -1.2785   -1.4366 H         1 <0>         0.0622
     37 H9         -1.9887   -1.8543    3.1805 H         1 <0>         0.0654
     38 H10        -2.6646   -1.2546   -1.0398 H         1 <0>         0.0654
     39 H11         2.1920   -2.8244   -1.8734 H         1 <0>         0.0732
     40 H12         5.3344    2.7120    1.0894 H         1 <0>         0.0557
     41 H13         5.6363    1.0320    1.6068 H         1 <0>         0.0557
     42 H14         7.5870    1.9399    0.3478 H         1 <0>         0.0252
     43 H15         6.5341    2.2548   -1.0525 H         1 <0>         0.0252
     44 H16         6.8300    0.5974   -0.5431 H         1 <0>         0.0252
     45 H17        -3.1982    1.0670    1.2152 H         1 <0>         0.0656
     46 H18        -6.1425   -1.8755    0.0792 H         1 <0>         0.0656
     47 H19        -4.4867    2.8027    0.1206 H         1 <0>         0.0686
     48 H20        -7.4653   -0.1365   -1.0149 H         1 <0>         0.0686
@<TRIPOS>BOND
     1    1   20 1
     2    2   20 1
     3    3   13 1
     4    3   21 1
     5    4   17 1
     6    4   22 1
     7    5   14 2
     8    6    9 1
     9    7    9 2
    10    8   10 1
    11    8   11 1
    12    8   14 am
    13    9   26 1
    14   10   12 1
    15   10   29 1
    16   10   30 1
    17   11   13 1
    18   11   31 1
    19   11   32 1
    20   12   15 ar
    21   12   16 ar
    22   13   33 1
    23   13   34 1
    24   14   20 1
    25   15   18 ar
    26   15   35 1
    27   16   19 ar
    28   16   36 1
    29   17   18 ar
    30   17   19 ar
    31   18   37 1
    32   19   38 1
    33   20   39 1
    34   21   23 1
    35   21   40 1
    36   21   41 1
    37   22   24 ar
    38   22   25 ar
    39   23   42 1
    40   23   43 1
    41   23   44 1
    42   24   27 ar
    43   24   45 1
    44   25   28 ar
    45   25   46 1
    46   26   27 ar
    47   26   28 ar
    48   27   47 1
    49   28   48 1
