@<TRIPOS>MOLECULE
DB13882
   17    17     0     0     0
SMALL
USER_CHARGES

@<TRIPOS>ATOM
      1 O1          1.8972    0.4766    0.0003 O.3       1 <0>        -0.4644
      2 O2          1.4018   -1.7713    0.0012 O.2       1 <0>        -0.2449
      3 N1         -1.9467    1.6613    0.0001 N.ar      1 <0>        -0.2624
      4 C1         -0.3505   -0.1544    0.0006 C.ar      1 <0>         0.0770
      5 C2         -1.3899   -1.0779    0.0001 C.ar      1 <0>        -0.0449
      6 C3         -0.6790    1.1917    0.0007 C.ar      1 <0>         0.0415
      7 C4          1.0360   -0.5873    0.0012 C.2       1 <0>         0.3404
      8 C5         -2.7075   -0.6335   -0.0004 C.ar      1 <0>        -0.0428
      9 C6         -2.9306    0.7340   -0.0003 C.ar      1 <0>         0.0276
     10 C7          3.2974    0.1778   -0.0006 C.3       1 <0>         0.0820
     11 H1         -1.1936   -2.1466    0.0001 H         1 <0>         0.0627
     12 H2          0.0668    1.9802    0.0011 H         1 <0>         0.0838
     13 H3         -3.5338   -1.3351   -0.0009 H         1 <0>         0.0633
     14 H4         -3.9399    1.1320   -0.0006 H         1 <0>         0.0829
     15 H5          3.5619   -0.3852   -0.9005 H         1 <0>         0.0661
     16 H6          3.5631   -0.3847    0.8993 H         1 <0>         0.0661
     17 H7          3.8472    1.1224   -0.0012 H         1 <0>         0.0661
@<TRIPOS>BOND
     1    1    7 1
     2    1   10 1
     3    2    7 2
     4    3    6 ar
     5    3    9 ar
     6    4    5 ar
     7    4    6 ar
     8    4    7 1
     9    5    8 ar
    10    5   11 1
    11    6   12 1
    12    8    9 ar
    13    8   13 1
    14    9   14 1
    15   10   15 1
    16   10   16 1
    17   10   17 1
