@<TRIPOS>MOLECULE
DB13873
   37    38     0     0     0
SMALL
USER_CHARGES

@<TRIPOS>ATOM
      1 Cl1        -6.9584    2.3319    0.0991 Cl        1 <0>        -0.0835
      2 O1          2.8025   -0.2041    1.1459 O.3       1 <0>        -0.4751
      3 O2          5.8756    1.1881   -0.0647 O.3       1 <0>        -0.4779
      4 O3          5.2485    0.3340    1.9341 O.2       1 <0>        -0.2465
      5 O4         -2.7081   -2.6875   -0.7068 O.2       1 <0>        -0.2867
      6 C1          3.6301    0.3346    0.1145 C.3       1 <0>         0.2003
      7 C2          2.9872    1.6266   -0.3809 C.3       1 <0>        -0.0145
      8 C3          3.7526   -0.7126   -0.9885 C.3       1 <0>        -0.0145
      9 C4          1.5222   -0.5320    0.7939 C.ar      1 <0>         0.1221
     10 C5          4.9778    0.6055    0.7704 C.2       1 <0>         0.3485
     11 C6         -1.0837   -1.2004    0.0810 C.ar      1 <0>         0.0225
     12 C7          0.5104    0.4170    0.9053 C.ar      1 <0>        -0.0192
     13 C8          1.2403   -1.8127    0.3285 C.ar      1 <0>        -0.0192
     14 C9         -0.7957    0.0819    0.5482 C.ar      1 <0>        -0.0475
     15 C10        -0.0657   -2.1478   -0.0288 C.ar      1 <0>        -0.0475
     16 C11        -2.4460   -1.5494   -0.2906 C.2       1 <0>         0.1931
     17 C12        -3.5763   -0.5772   -0.1935 C.ar      1 <0>         0.0223
     18 C13        -3.8586    0.2146   -1.2820 C.ar      1 <0>        -0.0495
     19 C14        -4.2889   -0.5129    0.9812 C.ar      1 <0>        -0.0495
     20 C15        -4.9138    1.1224   -1.1907 C.ar      1 <0>        -0.0427
     21 C16        -5.3442    0.3948    1.0724 C.ar      1 <0>        -0.0427
     22 C17        -5.6565    1.2125   -0.0135 C.ar      1 <0>         0.0410
     23 H1          2.7543    2.3021    0.4502 H         1 <0>         0.0273
     24 H2          2.0712    1.4586   -0.9561 H         1 <0>         0.0273
     25 H3          3.6674    2.1673   -1.0496 H         1 <0>         0.0273
     26 H4          2.8292   -0.8457   -1.5606 H         1 <0>         0.0273
     27 H5          4.5200   -0.4189   -1.7147 H         1 <0>         0.0273
     28 H6          4.0533   -1.6862   -0.5850 H         1 <0>         0.0273
     29 H7          0.7152    1.4112    1.2911 H         1 <0>         0.0654
     30 H8          2.0176   -2.5681    0.2615 H         1 <0>         0.0654
     31 H9         -1.5576    0.8479    0.6546 H         1 <0>         0.0626
     32 H10        -0.2648   -3.1553   -0.3846 H         1 <0>         0.0626
     33 H11        -3.2830    0.1473   -2.2001 H         1 <0>         0.0625
     34 H12        -4.0489   -1.1478    1.8286 H         1 <0>         0.0625
     35 H13         6.7348    1.3529    0.3792 H         1 <0>         0.2952
     36 H14        -5.1458    1.7533   -2.0450 H         1 <0>         0.0632
     37 H15        -5.9143    0.4540    1.9961 H         1 <0>         0.0632
@<TRIPOS>BOND
     1    1   22 1
     2    2    6 1
     3    2    9 1
     4    3   10 1
     5    3   35 1
     6    4   10 2
     7    5   16 2
     8    6    7 1
     9    6    8 1
    10    6   10 1
    11    7   23 1
    12    7   24 1
    13    7   25 1
    14    8   26 1
    15    8   27 1
    16    8   28 1
    17    9   12 ar
    18    9   13 ar
    19   11   14 ar
    20   11   15 ar
    21   11   16 1
    22   12   14 ar
    23   12   29 1
    24   13   15 ar
    25   13   30 1
    26   14   31 1
    27   15   32 1
    28   16   17 1
    29   17   18 ar
    30   17   19 ar
    31   18   20 ar
    32   18   33 1
    33   19   21 ar
    34   19   34 1
    35   20   22 ar
    36   20   36 1
    37   21   22 ar
    38   21   37 1
