@<TRIPOS>MOLECULE
DB13259
    8     7     0     0     0
SMALL
USER_CHARGES

@<TRIPOS>ATOM
      1 Cl1         1.6617    1.2554   -0.0000 Cl        1 <0>        -0.1257
      2 C1          0.6941   -0.2347    0.0000 C.3       1 <0>         0.0198
      3 C2         -0.7843    0.0925   -0.0000 C.3       1 <0>        -0.0517
      4 H1          0.9640   -0.8124   -0.8885 H         1 <0>         0.0427
      5 H2          0.9640   -0.8123    0.8886 H         1 <0>         0.0427
      6 H3         -1.3746   -0.8294    0.0000 H         1 <0>         0.0241
      7 H4         -1.0625    0.6705    0.8874 H         1 <0>         0.0241
      8 H5         -1.0625    0.6704   -0.8874 H         1 <0>         0.0241
@<TRIPOS>BOND
     1    1    2 1
     2    2    3 1
     3    2    4 1
     4    2    5 1
     5    3    6 1
     6    3    7 1
     7    3    8 1
