@<TRIPOS>MOLECULE
DB13854
   50    49     0     0     0
SMALL
USER_CHARGES

@<TRIPOS>ATOM
      1 O1          4.9381    2.5120    1.3438 O.3       1 <0>        -0.4806
      2 O2          4.7499    0.4181    2.2165 O.2       1 <0>        -0.2510
      3 C1         -2.2193    1.1126    0.9132 C.3       1 <0>        -0.0496
      4 C2         -1.5449    2.2365    0.1232 C.3       1 <0>        -0.0530
      5 C3         -1.3863    0.7149    2.1344 C.3       1 <0>        -0.0348
      6 C4          2.2253   -0.6710   -1.1540 C.3       1 <0>        -0.0491
      7 C5         -2.3731    2.7211   -1.0687 C.3       1 <0>        -0.0559
      8 C6          3.0801   -0.4391    0.0952 C.3       1 <0>        -0.0427
      9 C7          1.7024   -2.1056   -1.2819 C.3       1 <0>        -0.0347
     10 C8          3.5988    0.9974    0.1477 C.3       1 <0>         0.0448
     11 C9         -2.0699   -0.3605    2.9278 C.2       1 <0>        -0.0876
     12 C10        -1.7446    3.8869   -1.8159 C.3       1 <0>        -0.0653
     13 C11         0.8872   -2.3246   -2.5228 C.2       1 <0>        -0.0876
     14 C12        -1.9028   -1.6725    2.7058 C.2       1 <0>        -0.0842
     15 C13        -1.0112   -2.2325    1.6357 C.3       1 <0>        -0.0165
     16 C14        -0.4331   -2.1000   -2.5980 C.2       1 <0>        -0.0842
     17 C15        -1.2532   -1.6015   -1.4452 C.3       1 <0>        -0.0165
     18 C16        -1.7952   -3.0007    0.6112 C.2       1 <0>        -0.0839
     19 C17        -1.8966   -2.7349   -0.7010 C.2       1 <0>        -0.0839
     20 C18         4.4720    1.2368    1.3534 C.2       1 <0>         0.3047
     21 H1         -3.2080    1.4551    1.2456 H         1 <0>         0.0268
     22 H2         -2.3947    0.2529    0.2622 H         1 <0>         0.0268
     23 H3         -0.5666    1.8922   -0.2347 H         1 <0>         0.0265
     24 H4         -1.3565    3.0848    0.7930 H         1 <0>         0.0265
     25 H5         -0.3673    0.4408    1.8442 H         1 <0>         0.0307
     26 H6         -1.2677    1.5863    2.7915 H         1 <0>         0.0307
     27 H7          1.3856    0.0344   -1.1449 H         1 <0>         0.0268
     28 H8          2.8216   -0.4295   -2.0439 H         1 <0>         0.0268
     29 H9         -2.5221    1.8891   -1.7673 H         1 <0>         0.0263
     30 H10        -3.3677    3.0242   -0.7202 H         1 <0>         0.0263
     31 H11         3.9242   -1.1396    0.0982 H         1 <0>         0.0270
     32 H12         2.4868   -0.6541    0.9926 H         1 <0>         0.0270
     33 H13         2.5550   -2.7960   -1.3172 H         1 <0>         0.0307
     34 H14         1.1461   -2.3890   -0.3839 H         1 <0>         0.0307
     35 H15         4.1912    1.2094   -0.7495 H         1 <0>         0.0377
     36 H16         2.7547    1.6948    0.1919 H         1 <0>         0.0377
     37 H17        -2.7479   -0.0450    3.7164 H         1 <0>         0.0569
     38 H18        -1.6200    4.7515   -1.1564 H         1 <0>         0.0230
     39 H19        -0.7616    3.6115   -2.2107 H         1 <0>         0.0230
     40 H20        -2.3784    4.1870   -2.6561 H         1 <0>         0.0230
     41 H21         1.4100   -2.6755   -3.4086 H         1 <0>         0.0569
     42 H22        -2.4422   -2.3784    3.3327 H         1 <0>         0.0572
     43 H23        -0.3662   -1.4856    1.1779 H         1 <0>         0.0350
     44 H24        -0.3210   -2.9367    2.1187 H         1 <0>         0.0350
     45 H25        -0.9458   -2.2933   -3.5368 H         1 <0>         0.0572
     46 H26        -0.6732   -0.9403   -0.8010 H         1 <0>         0.0350
     47 H27        -2.0504   -0.9691   -1.8565 H         1 <0>         0.0350
     48 H28        -2.3338   -3.8719    0.9820 H         1 <0>         0.0572
     49 H29        -2.5253   -3.3986   -1.2932 H         1 <0>         0.0572
     50 H30         5.5177    2.6953    2.1136 H         1 <0>         0.2951
@<TRIPOS>BOND
     1    1   20 1
     2    1   50 1
     3    2   20 2
     4    3    4 1
     5    3    5 1
     6    3   21 1
     7    3   22 1
     8    4    7 1
     9    4   23 1
    10    4   24 1
    11    5   11 1
    12    5   25 1
    13    5   26 1
    14    6    8 1
    15    6    9 1
    16    6   27 1
    17    6   28 1
    18    7   12 1
    19    7   29 1
    20    7   30 1
    21    8   10 1
    22    8   31 1
    23    8   32 1
    24    9   13 1
    25    9   33 1
    26    9   34 1
    27   10   20 1
    28   10   35 1
    29   10   36 1
    30   11   14 2
    31   11   37 1
    32   12   38 1
    33   12   39 1
    34   12   40 1
    35   13   16 2
    36   13   41 1
    37   14   15 1
    38   14   42 1
    39   15   18 1
    40   15   43 1
    41   15   44 1
    42   16   17 1
    43   16   45 1
    44   17   19 1
    45   17   46 1
    46   17   47 1
    47   18   19 2
    48   18   48 1
    49   19   49 1
