@<TRIPOS>MOLECULE
DB13306
   21    22     0     0     0
SMALL
USER_CHARGES

@<TRIPOS>ATOM
      1 Cl1         2.0736    3.2089    0.0001 Cl        1 <0>        -0.0828
      2 Cl2         4.1355   -1.7115   -0.0001 Cl        1 <0>        -0.0796
      3 O1          1.2987   -2.6169    0.0000 O.3       1 <0>        -0.5033
      4 N1         -0.9112   -1.0186    0.0000 N.ar      1 <0>        -0.2481
      5 C1          0.4854    0.9454    0.0000 C.ar      1 <0>         0.0224
      6 C2          0.3115   -0.4545    0.0000 C.ar      1 <0>         0.1154
      7 C3          1.4498   -1.2558    0.0000 C.ar      1 <0>         0.1611
      8 C4         -0.6603    1.7525   -0.0001 C.ar      1 <0>        -0.0494
      9 C5          1.7765    1.5001    0.0000 C.ar      1 <0>         0.0517
     10 C6         -1.9912   -0.2042    0.0001 C.ar      1 <0>         0.0391
     11 C7         -1.9214    1.1741   -0.0001 C.ar      1 <0>        -0.0400
     12 C8          2.7337   -0.7046    0.0000 C.ar      1 <0>         0.0858
     13 C9          2.8976    0.6750    0.0000 C.ar      1 <0>        -0.0208
     14 C10        -3.3268   -0.8699    0.0000 C.3       1 <0>        -0.0223
     15 H1         -0.6067    2.8374   -0.0000 H         1 <0>         0.0625
     16 H2         -2.8122    1.7926   -0.0002 H         1 <0>         0.0636
     17 H3          3.8971    1.1045    0.0000 H         1 <0>         0.0648
     18 H4         -3.2232   -1.9600    0.0006 H         1 <0>         0.0292
     19 H5         -3.8945   -0.5847    0.8914 H         1 <0>         0.0292
     20 H6         -3.8940   -0.5855   -0.8920 H         1 <0>         0.0292
     21 H7          2.1822   -3.0243   -0.0001 H         1 <0>         0.2923
@<TRIPOS>BOND
     1    1    9 1
     2    2   12 1
     3    3    7 1
     4    3   21 1
     5    4    6 ar
     6    4   10 ar
     7    5    6 ar
     8    5    8 ar
     9    5    9 ar
    10    6    7 ar
    11    7   12 ar
    12    8   11 ar
    13    8   15 1
    14    9   13 ar
    15   10   11 ar
    16   10   14 1
    17   11   16 1
    18   12   13 ar
    19   13   17 1
    20   14   18 1
    21   14   19 1
    22   14   20 1
