@<TRIPOS>MOLECULE
DB13248
   40    42     0     0     0
SMALL
USER_CHARGES

@<TRIPOS>ATOM
      1 S1          4.6229    1.8406    0.0741 S.o2      1 <0>         0.0738
      2 S2          4.5355   -2.2338    1.2616 S.3       1 <0>        -0.0594
      3 O1          4.9045    2.9569    0.9692 O.2       1 <0>        -0.1499
      4 O2          5.0646    1.9242   -1.3127 O.2       1 <0>        -0.1499
      5 O3         -1.6136   -0.1689   -1.9057 O.2       1 <0>        -0.2698
      6 O4         -3.6586   -2.5825    1.7037 O.3       1 <0>        -0.4771
      7 O5         -2.1449   -2.3754    0.0206 O.2       1 <0>        -0.2451
      8 N1         -1.2307    0.8929    0.1513 N.am      1 <0>        -0.2815
      9 N2          5.2514    0.4067    0.7935 N.pl3     1 <0>        -0.1938
     10 N3          4.6388   -1.0578   -1.0382 N.2       1 <0>        -0.2321
     11 C1          2.8998    1.5621    0.0965 C.ar      1 <0>         0.1087
     12 C2          0.1674    1.1199    0.1326 C.ar      1 <0>         0.0338
     13 C3          2.2805    0.9344   -0.9843 C.ar      1 <0>        -0.0333
     14 C4          2.1423    1.9670    1.1954 C.ar      1 <0>        -0.0333
     15 C5          0.9035    0.7117   -0.9662 C.ar      1 <0>        -0.0386
     16 C6          0.7654    1.7442    1.2137 C.ar      1 <0>        -0.0386
     17 C7         -3.4520    0.2171   -0.5336 C.ar      1 <0>         0.0510
     18 C8         -2.0263    0.2840   -0.8275 C.2       1 <0>         0.2490
     19 C9         -4.0022   -0.8722    0.1418 C.ar      1 <0>         0.0709
     20 C10        -4.2701    1.2709   -0.9410 C.ar      1 <0>        -0.0488
     21 C11         4.8301   -0.8598    0.2581 C.2       1 <0>         0.1774
     22 C12        -5.3707   -0.9077    0.4098 C.ar      1 <0>        -0.0470
     23 C13        -5.6386    1.2352   -0.6730 C.ar      1 <0>        -0.0610
     24 C14        -6.1888    0.1459    0.0024 C.ar      1 <0>        -0.0609
     25 C15        -3.1741   -1.9882    0.5800 C.2       1 <0>         0.3375
     26 C16         4.1259   -3.1515   -0.1281 C.2       1 <0>        -0.0030
     27 C17         4.2384   -2.3623   -1.2533 C.2       1 <0>         0.0369
     28 H1          2.8425    0.6306   -1.8622 H         1 <0>         0.0638
     29 H2          2.6040    2.4506    2.0514 H         1 <0>         0.0638
     30 H3          0.4989    0.2255   -1.8411 H         1 <0>         0.0637
     31 H4          0.1846    2.0614    2.0753 H         1 <0>         0.0637
     32 H5         -1.7075    1.2223    0.9885 H         1 <0>         0.1551
     33 H6          5.4206    0.4183    1.8068 H         1 <0>         0.1757
     34 H7         -3.8535    2.1254   -1.4681 H         1 <0>         0.0625
     35 H8         -5.8328   -1.7479    0.9219 H         1 <0>         0.0626
     36 H9         -6.2758    2.0553   -0.9910 H         1 <0>         0.0618
     37 H10        -7.2550    0.1171    0.2080 H         1 <0>         0.0618
     38 H11         3.8317   -4.1889   -0.0585 H         1 <0>         0.0710
     39 H12         4.0373   -2.6917   -2.2636 H         1 <0>         0.0835
     40 H13        -3.0952   -3.3320    1.9921 H         1 <0>         0.2954
@<TRIPOS>BOND
     1    1    3 2
     2    1    4 2
     3    1    9 1
     4    1   11 1
     5    2   21 1
     6    2   26 1
     7    5   18 2
     8    6   25 1
     9    6   40 1
    10    7   25 2
    11    8   12 1
    12    8   18 am
    13    8   32 1
    14    9   21 1
    15    9   33 1
    16   10   21 2
    17   10   27 1
    18   11   13 ar
    19   11   14 ar
    20   12   15 ar
    21   12   16 ar
    22   13   15 ar
    23   13   28 1
    24   14   16 ar
    25   14   29 1
    26   15   30 1
    27   16   31 1
    28   17   18 1
    29   17   19 ar
    30   17   20 ar
    31   19   22 ar
    32   19   25 1
    33   20   23 ar
    34   20   34 1
    35   22   24 ar
    36   22   35 1
    37   23   24 ar
    38   23   36 1
    39   24   37 1
    40   26   27 2
    41   26   38 1
    42   27   39 1
