@<TRIPOS>MOLECULE
DB13941
   69    74     0     0     0
SMALL
USER_CHARGES

@<TRIPOS>ATOM
      1 Cl1         7.3571   -5.5109    0.7374 Cl        1 <0>        -0.0835
      2 Cl2       -10.3218   -0.8393   -2.2965 Cl        1 <0>        -0.0835
      3 N1          2.2243    2.0122    0.5236 N.3       1 <0>        -0.2993
      4 N2         -2.1145    1.7663    0.6767 N.3       1 <0>        -0.2993
      5 N3          4.6115    0.6293   -0.2171 N.pl3     1 <0>        -0.3269
      6 N4         -4.0937   -0.2682    0.3565 N.pl3     1 <0>        -0.3269
      7 N5          8.3280   -0.9947   -1.3619 N.ar      1 <0>        -0.2548
      8 N6         -6.8137   -3.4852    0.2410 N.ar      1 <0>        -0.2548
      9 C1          0.8482    2.1377    1.0022 C.3       1 <0>         0.0002
     10 C2         -1.4605    3.0466    0.4084 C.3       1 <0>         0.0002
     11 C3         -0.0075    2.8653   -0.0363 C.3       1 <0>        -0.0274
     12 C4          2.2704    1.2169   -0.7093 C.3       1 <0>         0.0147
     13 C5          3.0718    1.3921    1.5498 C.3       1 <0>         0.0147
     14 C6         -3.4834    1.9794    1.1629 C.3       1 <0>         0.0147
     15 C7         -2.1381    0.9363   -0.5339 C.3       1 <0>         0.0147
     16 C8          3.6989    1.1249   -1.2519 C.3       1 <0>         0.0250
     17 C9          4.5267    1.3072    1.0826 C.3       1 <0>         0.0250
     18 C10        -4.1591    0.6487    1.5015 C.3       1 <0>         0.0250
     19 C11        -2.7700   -0.4292   -0.2525 C.3       1 <0>         0.0250
     20 C12         5.8379    0.0652   -0.5856 C.ar      1 <0>         0.0405
     21 C13        -5.0150   -1.3202    0.3031 C.ar      1 <0>         0.0405
     22 C14         6.1987   -1.2699   -0.2674 C.ar      1 <0>         0.0215
     23 C15        -6.2845   -1.2020   -0.3197 C.ar      1 <0>         0.0215
     24 C16         6.7623    0.8421   -1.3004 C.ar      1 <0>        -0.0219
     25 C17        -4.6833   -2.5517    0.8883 C.ar      1 <0>        -0.0219
     26 C18         7.4569   -1.7592   -0.6765 C.ar      1 <0>         0.0741
     27 C19        -7.1540   -2.3128   -0.3271 C.ar      1 <0>         0.0741
     28 C20         5.3141   -2.0957    0.4466 C.ar      1 <0>        -0.0494
     29 C21        -6.6722    0.0067   -0.9225 C.ar      1 <0>        -0.0494
     30 C22         7.9692    0.2756   -1.6574 C.ar      1 <0>         0.0300
     31 C23        -5.6001   -3.5818    0.8308 C.ar      1 <0>         0.0300
     32 C24         7.7861   -3.0723   -0.3515 C.ar      1 <0>        -0.0173
     33 C25        -8.3934   -2.1702   -0.9449 C.ar      1 <0>        -0.0173
     34 C26         5.6692   -3.4051    0.7582 C.ar      1 <0>        -0.0426
     35 C27        -7.9178    0.1214   -1.5331 C.ar      1 <0>        -0.0426
     36 C28         6.9068   -3.8937    0.3584 C.ar      1 <0>         0.0430
     37 C29        -8.7792   -0.9687   -1.5443 C.ar      1 <0>         0.0430
     38 H1          0.4298    1.1497    1.2306 H         1 <0>         0.0427
     39 H2          0.8332    2.7196    1.9325 H         1 <0>         0.0427
     40 H3         -2.0028    3.6168   -0.3573 H         1 <0>         0.0427
     41 H4         -1.4644    3.6569    1.3206 H         1 <0>         0.0427
     42 H5          0.4156    3.8684   -0.1879 H         1 <0>         0.0290
     43 H6         -0.0061    2.4082   -1.0260 H         1 <0>         0.0290
     44 H7          1.6952    1.6615   -1.5237 H         1 <0>         0.0442
     45 H8          1.8758    0.2065   -0.5368 H         1 <0>         0.0442
     46 H9          2.7072    0.3860    1.7982 H         1 <0>         0.0442
     47 H10         3.0430    1.9863    2.4711 H         1 <0>         0.0442
     48 H11        -4.0824    2.5147    0.4137 H         1 <0>         0.0442
     49 H12        -3.4689    2.5956    2.0701 H         1 <0>         0.0442
     50 H13        -1.1322    0.7199   -0.9049 H         1 <0>         0.0442
     51 H14        -2.6892    1.4382   -1.3405 H         1 <0>         0.0442
     52 H15         3.7041    0.4491   -2.1161 H         1 <0>         0.0476
     53 H16         4.0327    2.1110   -1.5993 H         1 <0>         0.0476
     54 H17         4.9568    2.3133    0.9975 H         1 <0>         0.0476
     55 H18         5.1068    0.7659    1.8402 H         1 <0>         0.0476
     56 H19        -3.6700    0.1850    2.3678 H         1 <0>         0.0476
     57 H20        -5.2014    0.8460    1.7805 H         1 <0>         0.0476
     58 H21        -2.8523   -0.9801   -1.1978 H         1 <0>         0.0476
     59 H22        -2.1224   -1.0111    0.4159 H         1 <0>         0.0476
     60 H23         6.5473    1.8719   -1.5682 H         1 <0>         0.0651
     61 H24        -3.7298   -2.7026    1.3849 H         1 <0>         0.0651
     62 H25         4.3376   -1.7432    0.7697 H         1 <0>         0.0625
     63 H26        -6.0188    0.8756   -0.9332 H         1 <0>         0.0625
     64 H27         8.7096    0.8456   -2.2091 H         1 <0>         0.0830
     65 H28        -5.3798   -4.5477    1.2734 H         1 <0>         0.0830
     66 H29         8.7542   -3.4653   -0.6603 H         1 <0>         0.0653
     67 H30        -9.0764   -3.0189   -0.9592 H         1 <0>         0.0653
     68 H31         4.9721   -4.0296    1.3102 H         1 <0>         0.0632
     69 H32        -8.2005    1.0635   -1.9951 H         1 <0>         0.0632
@<TRIPOS>BOND
     1    1   36 1
     2    2   37 1
     3    3    9 1
     4    3   12 1
     5    3   13 1
     6    4   10 1
     7    4   14 1
     8    4   15 1
     9    5   16 1
    10    5   17 1
    11    5   20 1
    12    6   18 1
    13    6   19 1
    14    6   21 1
    15    7   26 ar
    16    7   30 ar
    17    8   27 ar
    18    8   31 ar
    19    9   11 1
    20    9   38 1
    21    9   39 1
    22   10   11 1
    23   10   40 1
    24   10   41 1
    25   11   42 1
    26   11   43 1
    27   12   16 1
    28   12   44 1
    29   12   45 1
    30   13   17 1
    31   13   46 1
    32   13   47 1
    33   14   18 1
    34   14   48 1
    35   14   49 1
    36   15   19 1
    37   15   50 1
    38   15   51 1
    39   16   52 1
    40   16   53 1
    41   17   54 1
    42   17   55 1
    43   18   56 1
    44   18   57 1
    45   19   58 1
    46   19   59 1
    47   20   22 ar
    48   20   24 ar
    49   21   23 ar
    50   21   25 ar
    51   22   26 ar
    52   22   28 ar
    53   23   27 ar
    54   23   29 ar
    55   24   30 ar
    56   24   60 1
    57   25   31 ar
    58   25   61 1
    59   26   32 ar
    60   27   33 ar
    61   28   34 ar
    62   28   62 1
    63   29   35 ar
    64   29   63 1
    65   30   64 1
    66   31   65 1
    67   32   36 ar
    68   32   66 1
    69   33   37 ar
    70   33   67 1
    71   34   36 ar
    72   34   68 1
    73   35   37 ar
    74   35   69 1
