@<TRIPOS>MOLECULE
DB13153
   42    42     0     0     0
SMALL
USER_CHARGES

@<TRIPOS>ATOM
      1 O1          0.6317   -1.8930    1.8535 O.3       1 <0>        -0.3886
      2 C1          1.3245   -0.5496    0.0016 C.3       1 <0>        -0.0087
      3 C2          0.1911   -1.3851    0.5927 C.3       1 <0>         0.0667
      4 C3          1.5860    0.7031    0.8438 C.3       1 <0>        -0.0436
      5 C4          2.6094   -1.3839   -0.1227 C.3       1 <0>        -0.0291
      6 C5         -1.0571   -0.5021    0.8037 C.3       1 <0>        -0.0206
      7 C6          2.6856    1.5695    0.2214 C.3       1 <0>        -0.0317
      8 C7         -0.0886   -2.5856   -0.3130 C.3       1 <0>        -0.0358
      9 C8          3.8693    0.7803   -0.2795 C.2       1 <0>        -0.0765
     10 C9          3.8262   -0.5560   -0.4164 C.2       1 <0>        -0.0847
     11 C10        -1.5588    0.2005   -0.4642 C.3       1 <0>        -0.0319
     12 C11         5.0969    1.5732   -0.6180 C.3       1 <0>        -0.0438
     13 C12        -2.7258    1.0982   -0.1586 C.2       1 <0>        -0.0852
     14 C13        -4.0361    0.7991   -0.2416 C.2       1 <0>        -0.0796
     15 C14        -5.1585    1.7450    0.0792 C.3       1 <0>        -0.0440
     16 C15        -4.4806   -0.5650   -0.6975 C.3       1 <0>        -0.0440
     17 H1          1.0598   -0.2273   -1.0148 H         1 <0>         0.0331
     18 H2          1.8969    0.4261    1.8590 H         1 <0>         0.0272
     19 H3          0.7067    1.3449    0.9433 H         1 <0>         0.0272
     20 H4          2.5007   -2.1057   -0.9409 H         1 <0>         0.0311
     21 H5          2.8178   -1.9577    0.7874 H         1 <0>         0.0311
     22 H6         -1.8602   -1.1471    1.1903 H         1 <0>         0.0296
     23 H7         -0.9056    0.2172    1.6184 H         1 <0>         0.0296
     24 H8          3.0157    2.3001    0.9697 H         1 <0>         0.0310
     25 H9          2.2681    2.1370   -0.6199 H         1 <0>         0.0310
     26 H10        -0.9885   -3.1128    0.0260 H         1 <0>         0.0257
     27 H11        -0.2432   -2.2947   -1.3567 H         1 <0>         0.0257
     28 H12         0.7146   -3.3292   -0.2698 H         1 <0>         0.0257
     29 H13         4.7063   -1.0928   -0.7612 H         1 <0>         0.0572
     30 H14        -1.8037   -0.5233   -1.2469 H         1 <0>         0.0308
     31 H15        -0.7859    0.8455   -0.8947 H         1 <0>         0.0308
     32 H16         0.6032   -1.1754    2.5078 H         1 <0>         0.2102
     33 H17         5.9089    0.9394   -0.9896 H         1 <0>         0.0274
     34 H18         5.4646    2.1011    0.2679 H         1 <0>         0.0274
     35 H19         4.8689    2.3116   -1.3934 H         1 <0>         0.0274
     36 H20        -2.4562    2.0963    0.1843 H         1 <0>         0.0571
     37 H21        -5.7682    1.3510    0.8985 H         1 <0>         0.0274
     38 H22        -4.7830    2.7274    0.3839 H         1 <0>         0.0274
     39 H23        -5.7986    1.8886   -0.7972 H         1 <0>         0.0274
     40 H24        -3.6891   -1.3170   -0.7178 H         1 <0>         0.0274
     41 H25        -4.9162   -0.5008   -1.7000 H         1 <0>         0.0274
     42 H26        -5.2490   -0.9510   -0.0180 H         1 <0>         0.0274
@<TRIPOS>BOND
     1    1    3 1
     2    1   32 1
     3    2    3 1
     4    2    4 1
     5    2    5 1
     6    2   17 1
     7    3    6 1
     8    3    8 1
     9    4    7 1
    10    4   18 1
    11    4   19 1
    12    5   10 1
    13    5   20 1
    14    5   21 1
    15    6   11 1
    16    6   22 1
    17    6   23 1
    18    7    9 1
    19    7   24 1
    20    7   25 1
    21    8   26 1
    22    8   27 1
    23    8   28 1
    24    9   10 2
    25    9   12 1
    26   10   29 1
    27   11   13 1
    28   11   30 1
    29   11   31 1
    30   12   33 1
    31   12   34 1
    32   12   35 1
    33   13   14 2
    34   13   36 1
    35   14   15 1
    36   14   16 1
    37   15   37 1
    38   15   38 1
    39   15   39 1
    40   16   40 1
    41   16   41 1
    42   16   42 1
