@<TRIPOS>MOLECULE
DB13783
   47    49     0     0     0
SMALL
USER_CHARGES

@<TRIPOS>ATOM
      1 Cl1         7.3499    0.2343   -2.4483 Cl        1 <0>        -0.0835
      2 O1         -0.0367   -4.4843    0.1831 O.3       1 <0>        -0.4951
      3 O2          2.5752    2.5963    1.5059 O.2       1 <0>        -0.2667
      4 O3         -4.3754    0.9373    0.0157 O.3       1 <0>        -0.4529
      5 O4         -2.4926    0.7920   -1.3084 O.2       1 <0>        -0.2505
      6 O5         -7.3705    1.6366   -1.8391 O.3       1 <0>        -0.4783
      7 O6         -7.0536    1.2866    0.3892 O.2       1 <0>        -0.2472
      8 N1          1.3231    0.8384    0.8235 N.am      1 <0>        -0.2801
      9 C1         -0.8687    0.3522    0.9503 C.2       1 <0>        -0.0080
     10 C2         -0.1708   -0.8551    0.7139 C.ar      1 <0>         0.0077
     11 C3          0.0575    1.3633    1.0057 C.cat     1 <0>         0.0284
     12 C4          1.1931   -0.5416    0.6324 C.ar      1 <0>         0.0574
     13 C5         -2.3317    0.4997    1.1045 C.3       1 <0>         0.0723
     14 C6         -0.5869   -2.1941    0.5595 C.ar      1 <0>        -0.0105
     15 C7          2.1496   -1.5507    0.4090 C.ar      1 <0>        -0.0337
     16 C8         -0.2127    2.8036    1.2290 C.3       1 <0>        -0.0235
     17 C9          2.5157    1.5940    0.8013 C.2       1 <0>         0.2631
     18 C10         0.3637   -3.1910    0.3322 C.ar      1 <0>         0.1208
     19 C11         1.7134   -2.8713    0.2594 C.ar      1 <0>        -0.0180
     20 C12         3.7080    1.2586   -0.0009 C.ar      1 <0>         0.0399
     21 C13        -3.0401    0.7561   -0.2148 C.2       1 <0>         0.3120
     22 C14         3.5625    0.5834   -1.2099 C.ar      1 <0>        -0.0480
     23 C15         4.9734    1.6187    0.4556 C.ar      1 <0>        -0.0480
     24 C16         4.6900    0.2660   -1.9676 C.ar      1 <0>        -0.0427
     25 C17         6.1008    1.3015   -0.3020 C.ar      1 <0>        -0.0427
     26 C18         5.9592    0.6251   -1.5136 C.ar      1 <0>         0.0410
     27 C19        -1.4366   -4.7437    0.2690 C.3       1 <0>         0.0788
     28 C20        -5.1728    1.1886   -1.1460 C.3       1 <0>         0.1886
     29 C21        -6.6114    1.3672   -0.7470 C.2       1 <0>         0.3428
     30 H1         -2.7580   -0.4123    1.5389 H         1 <0>         0.0427
     31 H2         -2.5675    1.3222    1.7890 H         1 <0>         0.0427
     32 H3         -1.6511   -2.3857    0.6253 H         1 <0>         0.0661
     33 H4          3.2155   -1.3596    0.4233 H         1 <0>         0.0640
     34 H5         -1.2679    3.0536    1.0832 H         1 <0>         0.0292
     35 H6          0.0573    3.0924    2.2499 H         1 <0>         0.0292
     36 H7          0.3478    3.4265    0.5243 H         1 <0>         0.0292
     37 H8          2.4498   -3.6558    0.1012 H         1 <0>         0.0655
     38 H9          2.5866    0.3387   -1.6191 H         1 <0>         0.0626
     39 H10         5.1056    2.1405    1.3997 H         1 <0>         0.0626
     40 H11         4.5639   -0.2508   -2.9155 H         1 <0>         0.0632
     41 H12         7.0836    1.5864    0.0648 H         1 <0>         0.0632
     42 H13        -1.5745   -5.8206    0.1269 H         1 <0>         0.0660
     43 H14        -1.8317   -4.5004    1.2612 H         1 <0>         0.0660
     44 H15        -1.9894   -4.2433   -0.5334 H         1 <0>         0.0660
     45 H16        -5.1024    0.3330   -1.8258 H         1 <0>         0.0816
     46 H17        -4.8267    2.1088   -1.6284 H         1 <0>         0.0816
     47 H18        -8.3157    1.7585   -1.6068 H         1 <0>         0.2952
@<TRIPOS>BOND
     1    1   26 1
     2    2   18 1
     3    2   27 1
     4    3   17 2
     5    4   21 1
     6    4   28 1
     7    5   21 2
     8    6   29 1
     9    6   47 1
    10    7   29 2
    11    8   11 1
    12    8   12 2
    13    8   17 am
    14    9   10 2
    15    9   11 1
    16    9   13 1
    17   10   12 ar
    18   10   14 ar
    19   11   16 1
    20   12   15 ar
    21   13   21 1
    22   13   30 1
    23   13   31 1
    24   14   18 ar
    25   14   32 1
    26   15   19 ar
    27   15   33 1
    28   16   34 1
    29   16   35 1
    30   16   36 1
    31   17   20 1
    32   18   19 ar
    33   19   37 1
    34   20   22 ar
    35   20   23 ar
    36   22   24 ar
    37   22   38 1
    38   23   25 ar
    39   23   39 1
    40   24   26 ar
    41   24   40 1
    42   25   26 ar
    43   25   41 1
    44   27   42 1
    45   27   43 1
    46   27   44 1
    47   28   29 1
    48   28   45 1
    49   28   46 1
