@<TRIPOS>MOLECULE
DB13955
   84    87     0     0     0
SMALL
USER_CHARGES

@<TRIPOS>ATOM
      1 O1         -4.8496    0.3251    0.5729 O.3       1 <0>        -0.4608
      2 O2         -6.4925    1.4649   -0.5773 O.2       1 <0>        -0.2508
      3 O3          5.9078    0.9591   -1.5521 O.3       1 <0>        -0.4258
      4 O4          5.9193   -0.5870    0.2010 O.2       1 <0>        -0.2504
      5 C1         -2.4515    0.8315    0.1778 C.3       1 <0>         0.0081
      6 C2         -1.7231    2.1900    0.2139 C.3       1 <0>        -0.0288
      7 C3         -0.2032    2.0296    0.2207 C.3       1 <0>        -0.0305
      8 C4          0.2278    1.3059   -1.0911 C.3       1 <0>        -0.0125
      9 C5         -3.9082    1.3287    0.2462 C.3       1 <0>         0.1087
     10 C6         -2.0730    0.1216   -1.1276 C.3       1 <0>        -0.0434
     11 C7         -2.4025    2.9271    1.3646 C.3       1 <0>        -0.0460
     12 C8         -0.5466   -0.0267   -1.2778 C.3       1 <0>        -0.0453
     13 C9         -3.8675    2.4585    1.2938 C.3       1 <0>        -0.0149
     14 C10         0.5288    3.3698    0.3127 C.3       1 <0>        -0.0454
     15 C11        -2.1366   -0.1028    1.3741 C.3       1 <0>        -0.0559
     16 C12         1.7467    1.1901   -1.1858 C.ar      1 <0>        -0.0406
     17 C13         2.0287    3.1316    0.4589 C.3       1 <0>        -0.0270
     18 C14         2.5796    2.0866   -0.4805 C.ar      1 <0>        -0.0404
     19 C15         2.3532    0.2530   -2.0409 C.ar      1 <0>        -0.0546
     20 C16         3.9767    1.9894   -0.6039 C.ar      1 <0>        -0.0158
     21 C17        -6.1239    0.5119    0.0955 C.2       1 <0>         0.3074
     22 C18         3.7423    0.1732   -2.1611 C.ar      1 <0>        -0.0189
     23 C19         4.5546    1.0378   -1.4392 C.ar      1 <0>         0.1319
     24 C20        -6.9939   -0.6572    0.5011 C.3       1 <0>         0.0449
     25 C21        -8.4114   -0.5783   -0.0657 C.3       1 <0>        -0.0430
     26 C22        -9.2796   -1.7655    0.3628 C.3       1 <0>        -0.0526
     27 C23         6.5150    0.0854   -0.6300 C.2       1 <0>         0.3123
     28 C24       -10.6989   -1.6444   -0.1957 C.3       1 <0>        -0.0533
     29 C25         8.0128    0.0795   -0.8493 C.3       1 <0>         0.0454
     30 C26       -11.5748   -2.8134    0.2540 C.3       1 <0>        -0.0559
     31 C27         8.7460   -0.9140    0.0516 C.3       1 <0>        -0.0430
     32 C28        10.2511   -0.9585   -0.2309 C.3       1 <0>        -0.0526
     33 C29       -12.9769   -2.7142   -0.3255 C.3       1 <0>        -0.0653
     34 C30        10.9617   -1.9393    0.7041 C.3       1 <0>        -0.0533
     35 C31        12.4676   -1.9638    0.4432 C.3       1 <0>        -0.0559
     36 C32        13.1734   -2.9613    1.3478 C.3       1 <0>        -0.0653
     37 H1         -1.9794    2.7517   -0.7002 H         1 <0>         0.0310
     38 H2          0.0988    1.4296    1.0888 H         1 <0>         0.0310
     39 H3         -0.0605    1.9505   -1.9362 H         1 <0>         0.0352
     40 H4         -4.1546    1.7709   -0.7303 H         1 <0>         0.0739
     41 H5         -2.4497    0.6916   -1.9871 H         1 <0>         0.0272
     42 H6         -2.5466   -0.8659   -1.1833 H         1 <0>         0.0272
     43 H7         -2.3281    4.0139    1.2561 H         1 <0>         0.0269
     44 H8         -1.9612    2.6592    2.3310 H         1 <0>         0.0269
     45 H9         -0.3625   -0.4342   -2.2787 H         1 <0>         0.0271
     46 H10        -0.1713   -0.7764   -0.5709 H         1 <0>         0.0271
     47 H11        -4.2145    2.1183    2.2760 H         1 <0>         0.0301
     48 H12        -4.5273    3.2790    0.9907 H         1 <0>         0.0301
     49 H13         0.1791    3.9559    1.1697 H         1 <0>         0.0271
     50 H14         0.3313    3.9688   -0.5857 H         1 <0>         0.0271
     51 H15        -2.4099    0.3436    2.3354 H         1 <0>         0.0236
     52 H16        -2.6983   -1.0402    1.2859 H         1 <0>         0.0236
     53 H17        -1.0794   -0.3725    1.4373 H         1 <0>         0.0236
     54 H18         2.2398    2.8049    1.4853 H         1 <0>         0.0313
     55 H19         2.5509    4.0833    0.3031 H         1 <0>         0.0313
     56 H20         1.7579   -0.4311   -2.6381 H         1 <0>         0.0622
     57 H21         4.6171    2.6670   -0.0427 H         1 <0>         0.0657
     58 H22         4.1804   -0.5664   -2.8261 H         1 <0>         0.0654
     59 H23        -6.5127   -1.5760    0.1466 H         1 <0>         0.0377
     60 H24        -7.0361   -0.6803    1.5959 H         1 <0>         0.0377
     61 H25        -8.8817    0.3569    0.2635 H         1 <0>         0.0270
     62 H26        -8.3644   -0.5341   -1.1611 H         1 <0>         0.0270
     63 H27        -8.8227   -2.6992    0.0134 H         1 <0>         0.0265
     64 H28        -9.3181   -1.8130    1.4578 H         1 <0>         0.0265
     65 H29       -11.1477   -0.7010    0.1383 H         1 <0>         0.0265
     66 H30       -10.6594   -1.6133   -1.2914 H         1 <0>         0.0265
     67 H31         8.1961   -0.1777   -1.8986 H         1 <0>         0.0378
     68 H32         8.3862    1.0925   -0.6626 H         1 <0>         0.0378
     69 H33       -11.1226   -3.7608   -0.0619 H         1 <0>         0.0263
     70 H34       -11.6373   -2.8326    1.3483 H         1 <0>         0.0263
     71 H35         8.3200   -1.9160   -0.0861 H         1 <0>         0.0270
     72 H36         8.5752   -0.6449    1.1016 H         1 <0>         0.0270
     73 H37        10.4205   -1.2527   -1.2737 H         1 <0>         0.0265
     74 H38        10.6757    0.0447   -0.1037 H         1 <0>         0.0265
     75 H39       -12.9510   -2.7270   -1.4199 H         1 <0>         0.0230
     76 H40       -13.4698   -1.7912   -0.0039 H         1 <0>         0.0230
     77 H41       -13.5862   -3.5594    0.0096 H         1 <0>         0.0230
     78 H42        10.5467   -2.9448    0.5636 H         1 <0>         0.0265
     79 H43        10.7754   -1.6556    1.7471 H         1 <0>         0.0265
     80 H44        12.8902   -0.9659    0.6075 H         1 <0>         0.0263
     81 H45        12.6602   -2.2297   -0.6026 H         1 <0>         0.0263
     82 H46        12.7965   -3.9757    1.1829 H         1 <0>         0.0230
     83 H47        14.2491   -2.9616    1.1450 H         1 <0>         0.0230
     84 H48        13.0264   -2.7069    2.4023 H         1 <0>         0.0230
@<TRIPOS>BOND
     1    1    9 1
     2    1   21 1
     3    2   21 2
     4    3   23 1
     5    3   27 1
     6    4   27 2
     7    5    6 1
     8    5    9 1
     9    5   10 1
    10    5   15 1
    11    6    7 1
    12    6   11 1
    13    6   37 1
    14    7    8 1
    15    7   14 1
    16    7   38 1
    17    8   12 1
    18    8   16 1
    19    8   39 1
    20    9   13 1
    21    9   40 1
    22   10   12 1
    23   10   41 1
    24   10   42 1
    25   11   13 1
    26   11   43 1
    27   11   44 1
    28   12   45 1
    29   12   46 1
    30   13   47 1
    31   13   48 1
    32   14   17 1
    33   14   49 1
    34   14   50 1
    35   15   51 1
    36   15   52 1
    37   15   53 1
    38   16   18 ar
    39   16   19 ar
    40   17   18 1
    41   17   54 1
    42   17   55 1
    43   18   20 ar
    44   19   22 ar
    45   19   56 1
    46   20   23 ar
    47   20   57 1
    48   21   24 1
    49   22   23 ar
    50   22   58 1
    51   24   25 1
    52   24   59 1
    53   24   60 1
    54   25   26 1
    55   25   61 1
    56   25   62 1
    57   26   28 1
    58   26   63 1
    59   26   64 1
    60   27   29 1
    61   28   30 1
    62   28   65 1
    63   28   66 1
    64   29   31 1
    65   29   67 1
    66   29   68 1
    67   30   33 1
    68   30   69 1
    69   30   70 1
    70   31   32 1
    71   31   71 1
    72   31   72 1
    73   32   34 1
    74   32   73 1
    75   32   74 1
    76   33   75 1
    77   33   76 1
    78   33   77 1
    79   34   35 1
    80   34   78 1
    81   34   79 1
    82   35   36 1
    83   35   80 1
    84   35   81 1
    85   36   82 1
    86   36   83 1
    87   36   84 1
