@<TRIPOS>MOLECULE
DB13117
   11    10     0     0     0
SMALL
USER_CHARGES

@<TRIPOS>ATOM
      1 F1         -1.3227    1.1180    0.9582 F         1 <0>        -0.1705
      2 F2         -1.3562    0.8357   -1.2077 F         1 <0>        -0.1705
      3 F3         -2.3422   -0.6064    0.0976 F         1 <0>        -0.1705
      4 F4          1.3163    1.1432    0.9166 F         1 <0>        -0.2089
      5 F5          2.3537   -0.5451    0.0205 F         1 <0>        -0.2089
      6 C1          0.0119   -0.6180    0.0602 C.3       1 <0>         0.1032
      7 C2         -1.2603    0.1942   -0.0239 C.3       1 <0>         0.3953
      8 C3          1.2521    0.2390   -0.0918 C.3       1 <0>         0.2475
      9 H1          0.0463   -1.1308    1.0280 H         1 <0>         0.0407
     10 H2          0.0109   -1.3974   -0.7095 H         1 <0>         0.0407
     11 H3          1.2903    0.7676   -1.0482 H         1 <0>         0.1021
@<TRIPOS>BOND
     1    1    7 1
     2    2    7 1
     3    3    7 1
     4    4    8 1
     5    5    8 1
     6    6    7 1
     7    6    8 1
     8    6    9 1
     9    6   10 1
    10    8   11 1
