@<TRIPOS>MOLECULE
DB13125
   71    73     0     0     0
SMALL
USER_CHARGES

@<TRIPOS>ATOM
      1 Cl1         7.6840    1.2599    1.9807 Cl        1 <0>        -0.0829
      2 Cl2         5.9548   -3.0879   -0.8703 Cl        1 <0>        -0.0829
      3 S1          1.5985    4.4105    1.1379 S.3       1 <0>        -0.0599
      4 O1         -5.4944    0.5976   -0.8042 O.3       1 <0>        -0.3721
      5 O2         -2.0529    2.1728   -1.1460 O.3       1 <0>        -0.4941
      6 O3          1.7923   -0.2456    0.7082 O.2       1 <0>        -0.2698
      7 O4         11.2744   -0.9393   -0.9210 O.3       1 <0>        -0.4773
      8 O5         10.5489   -2.7960    0.1660 O.2       1 <0>        -0.2455
      9 N1          0.1584    2.2727    0.9432 N.2       1 <0>        -0.2245
     10 N2          2.5491    1.9777    0.9123 N.am      1 <0>        -0.2607
     11 C1         -4.3450   -2.9230   -0.1718 C.3       1 <0>        -0.0510
     12 C2         -5.2947   -1.7311   -0.2799 C.3       1 <0>        -0.0294
     13 C3         -5.0405   -4.2191    0.2543 C.3       1 <0>        -0.0532
     14 C4         -4.8710    1.8029   -1.2272 C.3       1 <0>         0.0842
     15 C5         -4.5650   -0.4752   -0.7374 C.3       1 <0>         0.0484
     16 C6         -4.1570    2.4315   -0.0545 C.ar      1 <0>         0.0231
     17 C7         -4.0857   -5.4062    0.3864 C.3       1 <0>        -0.0559
     18 C8         -2.7715    2.5910   -0.0629 C.ar      1 <0>         0.1349
     19 C9         -5.9174    2.7356   -1.8270 C.3       1 <0>        -0.0344
     20 C10        -2.1297    3.1740    1.0299 C.ar      1 <0>         0.0429
     21 C11        -4.9012    2.8548    1.0465 C.ar      1 <0>        -0.0526
     22 C12        -4.8341   -6.6825    0.7401 C.3       1 <0>        -0.0653
     23 C13        -2.8740    3.5974    2.1311 C.ar      1 <0>        -0.0490
     24 C14        -4.2596    3.4379    2.1394 C.ar      1 <0>        -0.0606
     25 C15        -0.7021    3.3485    1.0432 C.2       1 <0>         0.0837
     26 C16        -0.1072    4.5876    1.1565 C.2       1 <0>         0.0050
     27 C17         1.3960    2.7136    0.9821 C.2       1 <0>         0.1652
     28 C18        -1.8487    3.1215   -2.1895 C.3       1 <0>         0.0788
     29 C19         4.0971    0.0701    0.7057 C.ar      1 <0>         0.0399
     30 C20         2.7009    0.5747    0.7825 C.2       1 <0>         0.2498
     31 C21         6.7171   -0.8770    0.5606 C.ar      1 <0>         0.0121
     32 C22         5.1334    0.7919    1.2978 C.ar      1 <0>        -0.0306
     33 C23         4.3709   -1.1254    0.0411 C.ar      1 <0>        -0.0306
     34 C24         6.4435    0.3182    1.2253 C.ar      1 <0>         0.0502
     35 C25         5.6809   -1.5989   -0.0315 C.ar      1 <0>         0.0502
     36 C26         8.0914   -1.3727    0.4834 C.2       1 <0>        -0.0421
     37 C27         8.9765   -1.0828   -0.4932 C.2       1 <0>         0.0340
     38 C28         8.7296   -0.1640   -1.6554 C.3       1 <0>        -0.0329
     39 C29        10.3185   -1.7191   -0.3626 C.2       1 <0>         0.3325
     40 H1         -3.8541   -3.0843   -1.1395 H         1 <0>         0.0266
     41 H2         -3.5525   -2.6887    0.5497 H         1 <0>         0.0266
     42 H3         -5.7764   -1.5427    0.6875 H         1 <0>         0.0287
     43 H4         -6.1071   -1.9562   -0.9819 H         1 <0>         0.0287
     44 H5         -5.5485   -4.0565    1.2130 H         1 <0>         0.0265
     45 H6         -5.8200   -4.4605   -0.4792 H         1 <0>         0.0265
     46 H7         -4.1799    1.5693   -2.0450 H         1 <0>         0.0644
     47 H8         -4.1245   -0.6452   -1.7272 H         1 <0>         0.0560
     48 H9         -3.7625   -0.2447   -0.0282 H         1 <0>         0.0560
     49 H10        -3.5465   -5.5556   -0.5561 H         1 <0>         0.0263
     50 H11        -3.3375   -5.1963    1.1594 H         1 <0>         0.0263
     51 H12        -5.4811    3.6950   -2.1233 H         1 <0>         0.0258
     52 H13        -6.7444    2.9269   -1.1346 H         1 <0>         0.0258
     53 H14        -6.3672    2.2716   -2.7123 H         1 <0>         0.0258
     54 H15        -5.9799    2.7296    1.0792 H         1 <0>         0.0622
     55 H16        -5.5656   -6.9361   -0.0338 H         1 <0>         0.0230
     56 H17        -4.1339   -7.5187    0.8325 H         1 <0>         0.0230
     57 H18        -5.3634   -6.5756    1.6923 H         1 <0>         0.0230
     58 H19        -2.3945    4.0490    2.9966 H         1 <0>         0.0625
     59 H20        -4.8387    3.7639    2.9985 H         1 <0>         0.0618
     60 H21        -0.5666    5.5626    1.2440 H         1 <0>         0.0716
     61 H22        -2.7898    3.5891   -2.4957 H         1 <0>         0.0660
     62 H23        -1.1398    3.8918   -1.8720 H         1 <0>         0.0660
     63 H24        -1.4260    2.5958   -3.0502 H         1 <0>         0.0660
     64 H25         3.3845    2.5550    0.9225 H         1 <0>         0.1571
     65 H26         4.9423    1.7072    1.8515 H         1 <0>         0.0640
     66 H27         3.5660   -1.6882   -0.4268 H         1 <0>         0.0640
     67 H28         8.3648   -2.0365    1.3013 H         1 <0>         0.0629
     68 H29         9.3234    0.7502   -1.5538 H         1 <0>         0.0280
     69 H30         9.0079   -0.6578   -2.5925 H         1 <0>         0.0280
     70 H31         7.6809    0.1323   -1.7482 H         1 <0>         0.0280
     71 H32        12.1660   -1.3419   -0.8475 H         1 <0>         0.2954
@<TRIPOS>BOND
     1    1   34 1
     2    2   35 1
     3    3   26 1
     4    3   27 1
     5    4   14 1
     6    4   15 1
     7    5   18 1
     8    5   28 1
     9    6   30 2
    10    7   39 1
    11    7   71 1
    12    8   39 2
    13    9   25 1
    14    9   27 2
    15   10   27 1
    16   10   30 am
    17   10   64 1
    18   11   12 1
    19   11   13 1
    20   11   40 1
    21   11   41 1
    22   12   15 1
    23   12   42 1
    24   12   43 1
    25   13   17 1
    26   13   44 1
    27   13   45 1
    28   14   16 1
    29   14   19 1
    30   14   46 1
    31   15   47 1
    32   15   48 1
    33   16   18 ar
    34   16   21 ar
    35   17   22 1
    36   17   49 1
    37   17   50 1
    38   18   20 ar
    39   19   51 1
    40   19   52 1
    41   19   53 1
    42   20   23 ar
    43   20   25 1
    44   21   24 ar
    45   21   54 1
    46   22   55 1
    47   22   56 1
    48   22   57 1
    49   23   24 ar
    50   23   58 1
    51   24   59 1
    52   25   26 2
    53   26   60 1
    54   28   61 1
    55   28   62 1
    56   28   63 1
    57   29   30 1
    58   29   32 ar
    59   29   33 ar
    60   31   34 ar
    61   31   35 ar
    62   31   36 1
    63   32   34 ar
    64   32   65 1
    65   33   35 ar
    66   33   66 1
    67   36   37 2
    68   36   67 1
    69   37   38 1
    70   37   39 1
    71   38   68 1
    72   38   69 1
    73   38   70 1
