@<TRIPOS>MOLECULE
DB13262
   27    28     0     0     0
SMALL
USER_CHARGES

@<TRIPOS>ATOM
      1 O1          1.5885    0.1082   -0.5370 O.3       1 <0>        -0.4600
      2 O2          2.6245   -1.6607    0.5283 O.2       1 <0>        -0.2512
      3 N1         -1.3818   -0.2904    1.3126 N.3       1 <0>        -0.2988
      4 C1         -0.7496    0.2878   -1.1406 C.3       1 <0>        -0.0003
      5 C2          0.3405   -0.5723   -0.4758 C.3       1 <0>         0.1185
      6 C3         -0.9491    1.5639   -0.3044 C.3       1 <0>        -0.0339
      7 C4         -2.0601   -0.5100   -1.0850 C.3       1 <0>        -0.0339
      8 C5         -0.0483   -0.8479    0.9877 C.3       1 <0>         0.0363
      9 C6         -1.3357    1.1768    1.1319 C.3       1 <0>        -0.0006
     10 C7         -2.3812   -0.8550    0.3788 C.3       1 <0>        -0.0006
     11 C8          2.6539   -0.5548    0.0056 C.2       1 <0>         0.3043
     12 C9          3.8934    0.2765   -0.1302 C.3       1 <0>         0.0332
     13 H1         -0.4784    0.5495   -2.1687 H         1 <0>         0.0338
     14 H2          0.4313   -1.5164   -1.0299 H         1 <0>         0.0749
     15 H3         -1.7383    2.1827   -0.7481 H         1 <0>         0.0281
     16 H4         -0.0333    2.1662   -0.2979 H         1 <0>         0.0281
     17 H5         -1.9698   -1.4293   -1.6754 H         1 <0>         0.0281
     18 H6         -2.8777    0.0773   -1.5196 H         1 <0>         0.0281
     19 H7         -0.0684   -1.9306    1.1657 H         1 <0>         0.0463
     20 H8          0.6748   -0.4395    1.7039 H         1 <0>         0.0463
     21 H9         -0.6236    1.6161    1.8419 H         1 <0>         0.0427
     22 H10        -2.3100    1.6119    1.3876 H         1 <0>         0.0427
     23 H11        -3.3807   -0.4847    0.6388 H         1 <0>         0.0427
     24 H12        -2.4305   -1.9439    0.5046 H         1 <0>         0.0427
     25 H13         3.7650    1.2220    0.4028 H         1 <0>         0.0342
     26 H14         4.1052    0.4556   -1.1872 H         1 <0>         0.0342
     27 H15         4.7396   -0.2592    0.3095 H         1 <0>         0.0342
@<TRIPOS>BOND
     1    1    5 1
     2    1   11 1
     3    2   11 2
     4    3    8 1
     5    3    9 1
     6    3   10 1
     7    4    5 1
     8    4    6 1
     9    4    7 1
    10    4   13 1
    11    5    8 1
    12    5   14 1
    13    6    9 1
    14    6   15 1
    15    6   16 1
    16    7   10 1
    17    7   17 1
    18    7   18 1
    19    8   19 1
    20    8   20 1
    21    9   21 1
    22    9   22 1
    23   10   23 1
    24   10   24 1
    25   11   12 1
    26   12   25 1
    27   12   26 1
    28   12   27 1
