@<TRIPOS>MOLECULE
DB13628
   22    22     0     0     0
SMALL
USER_CHARGES

@<TRIPOS>ATOM
      1 O1         -1.6466   -0.0586   -0.0008 O.3       1 <0>        -0.4614
      2 O2          4.4801    1.1207    0.0015 O.3       1 <0>        -0.5068
      3 O3         -0.9450   -2.2510   -0.0010 O.2       1 <0>        -0.2450
      4 C1          0.6499   -0.4787   -0.0011 C.ar      1 <0>         0.0592
      5 C2          1.7588   -1.3247   -0.0004 C.ar      1 <0>        -0.0443
      6 C3          0.8279    0.9048   -0.0014 C.ar      1 <0>        -0.0443
      7 C4         -0.6922   -1.0389   -0.0013 C.2       1 <0>         0.3392
      8 C5         -3.0130   -0.4859    0.0003 C.3       1 <0>         0.0900
      9 C6          3.0459   -0.7871    0.0001 C.ar      1 <0>        -0.0194
     10 C7          2.1151    1.4425   -0.0010 C.ar      1 <0>        -0.0194
     11 C8          3.2242    0.5964   -0.0001 C.ar      1 <0>         0.1169
     12 C9         -3.9109    0.7330    0.0009 C.3       1 <0>        -0.0306
     13 H1          1.6423   -2.4053   -0.0001 H         1 <0>         0.0627
     14 H2         -0.0055    1.6016   -0.0019 H         1 <0>         0.0627
     15 H3         -3.2059   -1.0894   -0.8935 H         1 <0>         0.0695
     16 H4         -3.2044   -1.0891    0.8946 H         1 <0>         0.0695
     17 H5          3.9018   -1.4568    0.0011 H         1 <0>         0.0654
     18 H6          2.2481    2.5209   -0.0009 H         1 <0>         0.0654
     19 H7         -4.9651    0.4421    0.0017 H         1 <0>         0.0262
     20 H8         -3.7147    1.3554    0.8800 H         1 <0>         0.0262
     21 H9         -3.7161    1.3552   -0.8789 H         1 <0>         0.0262
     22 H10         5.1254    0.3929    0.0021 H         1 <0>         0.2921
@<TRIPOS>BOND
     1    1    7 1
     2    1    8 1
     3    2   11 1
     4    2   22 1
     5    3    7 2
     6    4    5 ar
     7    4    6 ar
     8    4    7 1
     9    5    9 ar
    10    5   13 1
    11    6   10 ar
    12    6   14 1
    13    8   12 1
    14    8   15 1
    15    8   16 1
    16    9   11 ar
    17    9   17 1
    18   10   11 ar
    19   10   18 1
    20   12   19 1
    21   12   20 1
    22   12   21 1
