@<TRIPOS>MOLECULE
DB13947
   98   103     0     0     0
SMALL
USER_CHARGES

@<TRIPOS>ATOM
      1 O1          5.6326    0.7383    0.0557 O.3       1 <0>        -0.4608
      2 O2          6.5087   -0.3332    1.9012 O.2       1 <0>        -0.2508
      3 O3         -7.0200   -0.2306    2.2590 O.2       1 <0>        -0.2701
      4 O4         -6.2794   -2.4196    0.0080 O.3       1 <0>        -0.3711
      5 N1         -5.2016    1.2974    0.9350 N.2       1 <0>        -0.1848
      6 N2         -5.8319    0.2605    0.3431 N.am      1 <0>        -0.2038
      7 C1          2.4276    2.2126    1.0195 C.3       1 <0>        -0.0290
      8 C2          3.2394    1.3967   -0.0059 C.3       1 <0>         0.0081
      9 C3          1.0697    2.6647    0.4733 C.3       1 <0>        -0.0337
     10 C4          0.2388    1.4009    0.0849 C.3       1 <0>        -0.0288
     11 C5         -1.2019    1.7563   -0.4504 C.3       1 <0>        -0.0073
     12 C6          2.4512    0.1206   -0.3269 C.3       1 <0>        -0.0437
     13 C7          1.0374    0.4439   -0.8436 C.3       1 <0>        -0.0485
     14 C8          4.5227    1.1702    0.8189 C.3       1 <0>         0.1087
     15 C9          3.4221    3.2637    1.5068 C.3       1 <0>        -0.0460
     16 C10         0.3032    3.5041    1.5030 C.3       1 <0>        -0.0459
     17 C11         4.7751    2.5285    1.5040 C.3       1 <0>        -0.0149
     18 C12        -1.8807    2.7336    0.5196 C.2       1 <0>        -0.0616
     19 C13         3.5590    2.1512   -1.3210 C.3       1 <0>        -0.0559
     20 C14        -1.0608    3.9207    0.9681 C.3       1 <0>        -0.0306
     21 C15        -2.0262    0.4383   -0.5488 C.3       1 <0>        -0.0382
     22 C16        -1.1521    2.4192   -1.8461 C.3       1 <0>        -0.0556
     23 C17        -3.5232    0.6684   -0.6812 C.3       1 <0>        -0.0081
     24 C18        -3.1415    2.5995    0.9648 C.2       1 <0>        -0.0392
     25 C19        -4.0167    1.5145    0.4631 C.2       1 <0>         0.0593
     26 C20         6.5678   -0.0161    0.7211 C.2       1 <0>         0.3074
     27 C21         7.6652   -0.4239   -0.2369 C.3       1 <0>         0.0449
     28 C22         8.7063   -1.3457    0.3979 C.3       1 <0>        -0.0430
     29 C23         9.8141   -1.7406   -0.5839 C.3       1 <0>        -0.0526
     30 C24        -6.7479   -0.4738    1.0833 C.2       1 <0>         0.2731
     31 C25        10.8549   -2.6393    0.0869 C.3       1 <0>        -0.0533
     32 C26        -7.4324   -1.5954    0.2773 C.3       1 <0>         0.1938
     33 C27        11.9761   -3.0114   -0.8830 C.3       1 <0>        -0.0559
     34 C28        -8.4438   -2.4087    1.0888 C.ar      1 <0>        -0.0026
     35 C29        -8.0706   -1.1077   -1.0297 C.ar      1 <0>        -0.0026
     36 C30        12.9955   -3.9313   -0.2298 C.3       1 <0>        -0.0653
     37 C31        -7.9950   -1.8949   -2.1786 C.ar      1 <0>        -0.0550
     38 C32        -8.1727   -3.7390    1.4083 C.ar      1 <0>        -0.0550
     39 C33        -8.7266    0.1227   -1.0692 C.ar      1 <0>        -0.0550
     40 C34        -9.6363   -1.8195    1.5089 C.ar      1 <0>        -0.0550
     41 C35        -9.0941   -4.4804    2.1478 C.ar      1 <0>        -0.0614
     42 C36        -8.5752   -1.4518   -3.3672 C.ar      1 <0>        -0.0614
     43 C37        -9.3069    0.5659   -2.2578 C.ar      1 <0>        -0.0614
     44 C38       -10.5578   -2.5608    2.2486 C.ar      1 <0>        -0.0614
     45 C39        -9.2313   -0.2213   -3.4068 C.ar      1 <0>        -0.0617
     46 C40       -10.2867   -3.8912    2.5680 C.ar      1 <0>        -0.0617
     47 H1          2.2179    1.5686    1.8903 H         1 <0>         0.0310
     48 H2          1.2285    3.2900   -0.4119 H         1 <0>         0.0307
     49 H3          0.0907    0.8410    1.0231 H         1 <0>         0.0312
     50 H4          2.3577   -0.5018    0.5725 H         1 <0>         0.0272
     51 H5          2.9848   -0.4873   -1.0676 H         1 <0>         0.0272
     52 H6          1.1150    0.8684   -1.8494 H         1 <0>         0.0268
     53 H7          0.5010   -0.5052   -0.9519 H         1 <0>         0.0268
     54 H8          4.2911    0.4282    1.5971 H         1 <0>         0.0739
     55 H9          3.1727    3.6316    2.5073 H         1 <0>         0.0269
     56 H10         3.4553    4.1280    0.8342 H         1 <0>         0.0269
     57 H11         0.8727    4.4064    1.7543 H         1 <0>         0.0271
     58 H12         0.1777    2.9376    2.4349 H         1 <0>         0.0271
     59 H13         5.5362    3.1167    0.9790 H         1 <0>         0.0301
     60 H14         5.1400    2.3746    2.5256 H         1 <0>         0.0301
     61 H15         4.1602    3.0497   -1.1500 H         1 <0>         0.0236
     62 H16         4.1304    1.5090   -2.0015 H         1 <0>         0.0236
     63 H17         2.6619    2.4672   -1.8594 H         1 <0>         0.0236
     64 H18        -1.5816    4.4936    1.7451 H         1 <0>         0.0310
     65 H19        -0.9299    4.6040    0.1200 H         1 <0>         0.0310
     66 H20        -1.8523   -0.1699    0.3502 H         1 <0>         0.0277
     67 H21        -1.6885   -0.1635   -1.4014 H         1 <0>         0.0277
     68 H22        -0.8250    1.7133   -2.6168 H         1 <0>         0.0238
     69 H23        -0.4709    3.2752   -1.8755 H         1 <0>         0.0238
     70 H24        -2.1382    2.7888   -2.1511 H         1 <0>         0.0238
     71 H25        -3.9323   -0.3448   -0.7053 H         1 <0>         0.0329
     72 H26        -3.7762    1.1623   -1.6253 H         1 <0>         0.0329
     73 H27        -3.5817    3.3002    1.6661 H         1 <0>         0.0636
     74 H28         8.1527    0.4890   -0.5971 H         1 <0>         0.0377
     75 H29         7.1994   -0.9349   -1.0874 H         1 <0>         0.0377
     76 H30         8.2115   -2.2491    0.7760 H         1 <0>         0.0270
     77 H31         9.1499   -0.8462    1.2685 H         1 <0>         0.0270
     78 H32        -5.7366    0.1313   -0.6576 H         1 <0>         0.1773
     79 H33        10.3016   -0.8360   -0.9672 H         1 <0>         0.0265
     80 H34         9.3744   -2.2611   -1.4431 H         1 <0>         0.0265
     81 H35        11.2800   -2.1254    0.9578 H         1 <0>         0.0265
     82 H36        10.3684   -3.5508    0.4553 H         1 <0>         0.0265
     83 H37        12.4816   -2.1042   -1.2338 H         1 <0>         0.0263
     84 H38        11.5561   -3.5103   -1.7641 H         1 <0>         0.0263
     85 H39        -5.7664   -2.0151   -0.7123 H         1 <0>         0.2116
     86 H40        12.5271   -4.8635    0.1018 H         1 <0>         0.0230
     87 H41        13.4577   -3.4508    0.6384 H         1 <0>         0.0230
     88 H42        13.7885   -4.1838   -0.9407 H         1 <0>         0.0230
     89 H43        -7.5002   -2.8620   -2.1699 H         1 <0>         0.0621
     90 H44        -7.2584   -4.2366    1.1000 H         1 <0>         0.0621
     91 H45        -9.8674   -0.7812    1.2951 H         1 <0>         0.0621
     92 H46        -8.7995    0.7566   -0.1901 H         1 <0>         0.0621
     93 H47        -8.8837   -5.5164    2.3967 H         1 <0>         0.0618
     94 H48        -8.5188   -2.0658   -4.2612 H         1 <0>         0.0618
     95 H49        -9.8176    1.5239   -2.2888 H         1 <0>         0.0618
     96 H50       -11.4842   -2.1010    2.5802 H         1 <0>         0.0618
     97 H51       -11.0036   -4.4682    3.1448 H         1 <0>         0.0618
     98 H52        -9.6835    0.1234   -4.3320 H         1 <0>         0.0618
@<TRIPOS>BOND
     1    1   14 1
     2    1   26 1
     3    2   26 2
     4    3   30 2
     5    4   32 1
     6    4   85 1
     7    5    6 1
     8    5   25 2
     9    6   30 am
    10    6   78 1
    11    7    8 1
    12    7    9 1
    13    7   15 1
    14    7   47 1
    15    8   12 1
    16    8   14 1
    17    8   19 1
    18    9   10 1
    19    9   16 1
    20    9   48 1
    21   10   11 1
    22   10   13 1
    23   10   49 1
    24   11   18 1
    25   11   21 1
    26   11   22 1
    27   12   13 1
    28   12   50 1
    29   12   51 1
    30   13   52 1
    31   13   53 1
    32   14   17 1
    33   14   54 1
    34   15   17 1
    35   15   55 1
    36   15   56 1
    37   16   20 1
    38   16   57 1
    39   16   58 1
    40   17   59 1
    41   17   60 1
    42   18   20 1
    43   18   24 2
    44   19   61 1
    45   19   62 1
    46   19   63 1
    47   20   64 1
    48   20   65 1
    49   21   23 1
    50   21   66 1
    51   21   67 1
    52   22   68 1
    53   22   69 1
    54   22   70 1
    55   23   25 1
    56   23   71 1
    57   23   72 1
    58   24   25 1
    59   24   73 1
    60   26   27 1
    61   27   28 1
    62   27   74 1
    63   27   75 1
    64   28   29 1
    65   28   76 1
    66   28   77 1
    67   29   31 1
    68   29   79 1
    69   29   80 1
    70   30   32 1
    71   31   33 1
    72   31   81 1
    73   31   82 1
    74   32   34 1
    75   32   35 1
    76   33   36 1
    77   33   83 1
    78   33   84 1
    79   34   38 ar
    80   34   40 ar
    81   35   37 ar
    82   35   39 ar
    83   36   86 1
    84   36   87 1
    85   36   88 1
    86   37   42 ar
    87   37   89 1
    88   38   41 ar
    89   38   90 1
    90   39   43 ar
    91   39   92 1
    92   40   44 ar
    93   40   91 1
    94   41   46 ar
    95   41   93 1
    96   42   45 ar
    97   42   94 1
    98   43   45 ar
    99   43   95 1
   100   44   46 ar
   101   44   96 1
   102   45   98 1
   103   46   97 1
