@<TRIPOS>MOLECULE
DB13972
   20    19     0     0     0
SMALL
USER_CHARGES

@<TRIPOS>ATOM
      1 S1         -2.3402   -0.0435    1.1075 S.3       1 <0>        -0.1639
      2 O1          2.7597   -1.2067   -1.5488 O.co2     1 <0>        -0.5442
      3 O2          1.4102   -2.4366   -0.1814 O.co2     1 <0>        -0.5442
      4 N1          1.9298    1.1622   -0.3678 N.4       1 <0>         0.2249
      5 C1          1.7629   -0.1494    0.3343 C.3       1 <0>         0.0167
      6 C2          0.4154   -0.1120    1.0708 C.3       1 <0>         0.0047
      7 C3         -0.8001   -0.0678    0.1417 C.3       1 <0>        -0.0011
      8 C4          1.9946   -1.3809   -0.5588 C.2       1 <0>         0.0894
      9 C5         -3.5083    0.0525   -0.2678 C.3       1 <0>        -0.0181
     10 H1          2.5620   -0.1625    1.0860 H         1 <0>         0.0915
     11 H2          0.3456   -0.9964    1.7182 H         1 <0>         0.0332
     12 H3          0.4000    0.7585    1.7409 H         1 <0>         0.0332
     13 H4         -0.8184   -0.9409   -0.5169 H         1 <0>         0.0378
     14 H5         -0.7767    0.8331   -0.4784 H         1 <0>         0.0378
     15 H6          1.7811    1.9586    0.2662 H         1 <0>         0.2001
     16 H7          1.2772    1.2618   -1.1563 H         1 <0>         0.2001
     17 H8          2.8803    1.2531   -0.7508 H         1 <0>         0.2001
     18 H9         -3.3414    0.9639   -0.8477 H         1 <0>         0.0340
     19 H10        -4.5277    0.0741    0.1263 H         1 <0>         0.0340
     20 H11        -3.4060   -0.8212   -0.9170 H         1 <0>         0.0340
@<TRIPOS>BOND
     1    1    7 1
     2    1    9 1
     3    2    8 2
     4    3    8 1
     5    4    5 1
     6    4   15 1
     7    4   16 1
     8    4   17 1
     9    5    6 1
    10    5    8 1
    11    5   10 1
    12    6    7 1
    13    6   11 1
    14    6   12 1
    15    7   13 1
    16    7   14 1
    17    9   18 1
    18    9   19 1
    19    9   20 1
