@<TRIPOS>MOLECULE
DB13270
   68    70     0     0     0
SMALL
USER_CHARGES

@<TRIPOS>ATOM
      1 O1         -1.3543   -0.9104   -0.3714 O.3       1 <0>        -0.3413
      2 O2          1.1954   -0.2189    0.7098 O.3       1 <0>        -0.3423
      3 O3         -0.1867   -3.2435    2.1767 O.3       1 <0>        -0.3865
      4 O4         -3.6771   -0.5531   -0.0718 O.3       1 <0>        -0.3406
      5 O5          3.3007    0.6848    1.2784 O.3       1 <0>        -0.3453
      6 O6         -1.5857   -0.2315   -3.0500 O.3       1 <0>        -0.3851
      7 O7         -3.2419    3.1036    0.0284 O.3       1 <0>        -0.3875
      8 O8         -4.6031   -0.1329    2.4590 O.3       1 <0>        -0.3924
      9 N1         -0.4259   -4.4772   -0.5660 N.3       1 <0>        -0.3250
     10 N2          2.2996   -3.7413    0.5871 N.3       1 <0>        -0.3250
     11 N3         -2.6354    2.5144   -2.7464 N.3       1 <0>        -0.3229
     12 N4         -0.1143    1.9860    1.9775 N.3       1 <0>        -0.3232
     13 N5          5.4021    1.8303   -1.5218 N.3       1 <0>        -0.3277
     14 C1         -1.0692   -2.2047    0.1640 C.3       1 <0>         0.1051
     15 C2          1.2224   -1.5830    1.1361 C.3       1 <0>         0.1051
     16 C3         -0.2189   -2.0287    1.4342 C.3       1 <0>         0.1104
     17 C4         -0.3909   -3.0584   -0.9244 C.3       1 <0>         0.0355
     18 C5          1.9248   -2.4300    0.0576 C.3       1 <0>         0.0355
     19 C6          1.0453   -2.5730   -1.1978 C.3       1 <0>        -0.0175
     20 C7         -2.6373   -0.8803   -0.9940 C.3       1 <0>         0.1874
     21 C8          1.9085    0.6138    1.6092 C.3       1 <0>         0.1750
     22 C9         -2.6406    0.1123   -2.1585 C.3       1 <0>         0.1234
     23 C10        -2.4841    1.5513   -1.6491 C.3       1 <0>         0.0647
     24 C11         1.3063    2.0261    1.6382 C.3       1 <0>         0.0566
     25 C12        -3.5351    1.8408   -0.5646 C.3       1 <0>         0.1012
     26 C13        -3.5292    0.7454    0.5136 C.3       1 <0>         0.1120
     27 C14         1.5294    2.7377    0.3013 C.3       1 <0>        -0.0307
     28 C15         3.5545    1.2747   -0.0020 C.3       1 <0>         0.0740
     29 C16         3.0124    2.7044   -0.0593 C.3       1 <0>        -0.0237
     30 C17        -4.6724    0.9161    1.5109 C.3       1 <0>         0.0730
     31 C18         5.0601    1.2531   -0.2294 C.3       1 <0>         0.0196
     32 H1         -2.0089   -2.6861    0.4728 H         1 <0>         0.0639
     33 H2          1.8123   -1.6916    2.0574 H         1 <0>         0.0639
     34 H3         -0.7002   -1.2709    2.0658 H         1 <0>         0.0646
     35 H4         -0.9412   -2.9567   -1.8671 H         1 <0>         0.0485
     36 H5          2.8482   -1.9211   -0.2460 H         1 <0>         0.0485
     37 H6          1.5333   -3.2344   -1.9264 H         1 <0>         0.0297
     38 H7          0.9882   -1.5921   -1.6896 H         1 <0>         0.0297
     39 H8         -2.8770   -1.8665   -1.4110 H         1 <0>         0.0937
     40 H9          1.8433    0.2292    2.6358 H         1 <0>         0.0926
     41 H10        -3.5912    0.0275   -2.7017 H         1 <0>         0.0660
     42 H11        -1.4738    1.6941   -1.2447 H         1 <0>         0.0512
     43 H12         1.8297    2.6046    2.4111 H         1 <0>         0.0508
     44 H13        -4.5312    1.9008   -1.0219 H         1 <0>         0.0636
     45 H14        -2.5910    0.7634    1.0816 H         1 <0>         0.0646
     46 H15        -1.3934   -4.7858   -0.4793 H         1 <0>         0.1185
     47 H16        -0.0121   -5.0307   -1.3150 H         1 <0>         0.1185
     48 H17         2.9446   -3.6258    1.3676 H         1 <0>         0.1185
     49 H18         2.8017   -4.2688   -0.1257 H         1 <0>         0.1185
     50 H19         0.9502    2.2524   -0.4948 H         1 <0>         0.0283
     51 H20         1.1872    3.7780    0.3572 H         1 <0>         0.0283
     52 H21         3.0688    0.6614   -0.7723 H         1 <0>         0.0609
     53 H22         0.2996   -3.0731    3.0011 H         1 <0>         0.2100
     54 H23         3.5549    3.3347    0.6573 H         1 <0>         0.0291
     55 H24         3.1476    3.1451   -1.0529 H         1 <0>         0.0291
     56 H25        -5.6423    0.8471    1.0069 H         1 <0>         0.0584
     57 H26        -4.6046    1.8737    2.0361 H         1 <0>         0.0584
     58 H27        -1.9154    2.3460   -3.4477 H         1 <0>         0.1186
     59 H28        -2.4823    3.4585   -2.3940 H         1 <0>         0.1186
     60 H29         5.5741    1.8030    0.5677 H         1 <0>         0.0447
     61 H30         5.4279    0.2216   -0.1743 H         1 <0>         0.0447
     62 H31        -0.2374    1.5574    2.8938 H         1 <0>         0.1186
     63 H32        -0.4775    2.9352    2.0501 H         1 <0>         0.1186
     64 H33        -1.7483   -1.1376   -3.3628 H         1 <0>         0.2101
     65 H34        -2.3667    3.0416    0.4478 H         1 <0>         0.2100
     66 H35         6.4066    1.7495   -1.6736 H         1 <0>         0.1183
     67 H36         4.9565    1.2953   -2.2662 H         1 <0>         0.1183
     68 H37        -5.3398   -0.0067    3.0811 H         1 <0>         0.2095
@<TRIPOS>BOND
     1    1   14 1
     2    1   20 1
     3    2   15 1
     4    2   21 1
     5    3   16 1
     6    3   53 1
     7    4   20 1
     8    4   26 1
     9    5   21 1
    10    5   28 1
    11    6   22 1
    12    6   64 1
    13    7   25 1
    14    7   65 1
    15    8   30 1
    16    8   68 1
    17    9   17 1
    18    9   46 1
    19    9   47 1
    20   10   18 1
    21   10   48 1
    22   10   49 1
    23   11   23 1
    24   11   58 1
    25   11   59 1
    26   12   24 1
    27   12   62 1
    28   12   63 1
    29   13   31 1
    30   13   66 1
    31   13   67 1
    32   14   16 1
    33   14   17 1
    34   14   32 1
    35   15   16 1
    36   15   18 1
    37   15   33 1
    38   16   34 1
    39   17   19 1
    40   17   35 1
    41   18   19 1
    42   18   36 1
    43   19   37 1
    44   19   38 1
    45   20   22 1
    46   20   39 1
    47   21   24 1
    48   21   40 1
    49   22   23 1
    50   22   41 1
    51   23   25 1
    52   23   42 1
    53   24   27 1
    54   24   43 1
    55   25   26 1
    56   25   44 1
    57   26   30 1
    58   26   45 1
    59   27   29 1
    60   27   50 1
    61   27   51 1
    62   28   29 1
    63   28   31 1
    64   28   52 1
    65   29   54 1
    66   29   55 1
    67   30   56 1
    68   30   57 1
    69   31   60 1
    70   31   61 1
