@<TRIPOS>MOLECULE
DB13216
   37    38     0     0     0
SMALL
USER_CHARGES

@<TRIPOS>ATOM
      1 O1         -0.9288   -1.3385    1.6696 O.3       1 <0>        -0.3377
      2 N1          3.1122   -0.0724    0.1644 N.3       1 <0>        -0.3024
      3 N2         -1.5118    0.4452    0.4468 N.2       1 <0>        -0.1913
      4 N3         -2.3017   -1.4668    1.4233 N.2       1 <0>        -0.0561
      5 C1          1.6973   -0.4161    0.0287 C.3       1 <0>         0.0073
      6 C2          0.8761    0.1731    1.1774 C.3       1 <0>         0.0393
      7 C3          3.2889    1.3793    0.1532 C.3       1 <0>        -0.0039
      8 C4          3.8934   -0.6907   -0.9061 C.3       1 <0>        -0.0039
      9 C5         -0.5818   -0.1964    1.0571 C.2       1 <0>         0.2289
     10 C6          4.7467    1.7565    0.3548 C.3       1 <0>        -0.0524
     11 C7          3.7218   -2.2002   -0.9096 C.3       1 <0>        -0.0524
     12 C8         -2.5708   -0.3779    0.6969 C.2       1 <0>         0.2021
     13 C9         -3.8861   -0.0828    0.2060 C.ar      1 <0>         0.0224
     14 C10        -4.9455   -0.9481    0.4821 C.ar      1 <0>        -0.0509
     15 C11        -4.1079    1.0703   -0.5484 C.ar      1 <0>        -0.0509
     16 C12        -6.2244   -0.6612    0.0045 C.ar      1 <0>        -0.0611
     17 C13        -5.3868    1.3572   -1.0258 C.ar      1 <0>        -0.0611
     18 C14        -6.4448    0.4914   -0.7493 C.ar      1 <0>        -0.0617
     19 H1          1.2948   -0.0769   -0.9357 H         1 <0>         0.0431
     20 H2          1.5458   -1.5001    0.0758 H         1 <0>         0.0431
     21 H3          0.8910    1.2672    1.1841 H         1 <0>         0.0373
     22 H4          1.2608   -0.1696    2.1458 H         1 <0>         0.0373
     23 H5          2.9099    1.8343   -0.7704 H         1 <0>         0.0424
     24 H6          2.7689    1.8486    0.9923 H         1 <0>         0.0424
     25 H7          3.6297   -0.2883   -1.8924 H         1 <0>         0.0424
     26 H8          4.9632   -0.5153   -0.7527 H         1 <0>         0.0424
     27 H9          5.1924    1.2207    1.2000 H         1 <0>         0.0242
     28 H10         5.3525    1.5784   -0.5391 H         1 <0>         0.0242
     29 H11         4.8221    2.8280    0.5723 H         1 <0>         0.0242
     30 H12         3.8316   -2.6264    0.0936 H         1 <0>         0.0242
     31 H13         2.7606   -2.5126   -1.3294 H         1 <0>         0.0242
     32 H14         4.4952   -2.6537   -1.5404 H         1 <0>         0.0242
     33 H15        -4.8121   -1.8553    1.0660 H         1 <0>         0.0625
     34 H16        -3.3043    1.7646   -0.7810 H         1 <0>         0.0625
     35 H17        -7.0485   -1.3349    0.2195 H         1 <0>         0.0618
     36 H18        -5.5590    2.2545   -1.6129 H         1 <0>         0.0618
     37 H19        -7.4406    0.7147   -1.1211 H         1 <0>         0.0618
@<TRIPOS>BOND
     1    1    4 1
     2    1    9 1
     3    2    5 1
     4    2    7 1
     5    2    8 1
     6    3    9 2
     7    3   12 1
     8    4   12 2
     9    5    6 1
    10    5   19 1
    11    5   20 1
    12    6    9 1
    13    6   21 1
    14    6   22 1
    15    7   10 1
    16    7   23 1
    17    7   24 1
    18    8   11 1
    19    8   25 1
    20    8   26 1
    21   10   27 1
    22   10   28 1
    23   10   29 1
    24   11   30 1
    25   11   31 1
    26   11   32 1
    27   12   13 1
    28   13   14 ar
    29   13   15 ar
    30   14   16 ar
    31   14   33 1
    32   15   17 ar
    33   15   34 1
    34   16   18 ar
    35   16   35 1
    36   17   18 ar
    37   17   36 1
    38   18   37 1
