@<TRIPOS>MOLECULE
DB13956
   58    61     0     0     0
SMALL
USER_CHARGES

@<TRIPOS>ATOM
      1 O1          2.5725    0.2384   -0.0346 O.3       1 <0>        -0.4608
      2 O2          3.9901   -1.1565   -1.2041 O.2       1 <0>        -0.2508
      3 O3         -8.3328    1.1927    0.6137 O.3       1 <0>        -0.5068
      4 C1          0.1105    0.0977   -0.0236 C.3       1 <0>         0.0081
      5 C2         -0.8066   -1.0730   -0.4311 C.3       1 <0>        -0.0288
      6 C3         -2.2457   -0.8703    0.0424 C.3       1 <0>        -0.0305
      7 C4         -2.8135    0.4190   -0.6252 C.3       1 <0>        -0.0125
      8 C5          1.4491   -0.4324   -0.5719 C.3       1 <0>         0.1087
      9 C6         -0.4077    1.3695   -0.7059 C.3       1 <0>        -0.0434
     10 C7         -0.0344   -2.3061    0.0294 C.3       1 <0>        -0.0460
     11 C8         -1.8872    1.6385   -0.3698 C.3       1 <0>        -0.0453
     12 C9          1.4409   -1.9268   -0.1943 C.3       1 <0>        -0.0149
     13 C10        -3.1517   -2.0521   -0.3083 C.3       1 <0>        -0.0454
     14 C11         0.2130    0.3419    1.5039 C.3       1 <0>        -0.0559
     15 C12        -4.2796    0.6321   -0.2583 C.ar      1 <0>        -0.0406
     16 C13        -4.5297   -1.8504    0.3147 C.3       1 <0>        -0.0270
     17 C14        -5.0843   -0.4573    0.1422 C.ar      1 <0>        -0.0405
     18 C15        -4.8879    1.8926   -0.3943 C.ar      1 <0>        -0.0546
     19 C16        -6.4420   -0.2516    0.4440 C.ar      1 <0>        -0.0167
     20 C17         3.8023   -0.2250   -0.4336 C.2       1 <0>         0.3074
     21 C18        -6.2401    2.0810   -0.1001 C.ar      1 <0>        -0.0199
     22 C19        -7.0163    1.0103    0.3238 C.ar      1 <0>         0.1171
     23 C20         4.8884    0.5949    0.2246 C.3       1 <0>         0.0449
     24 C21         6.2850    0.1118   -0.1631 C.3       1 <0>        -0.0432
     25 C22         7.3702    0.9751    0.4788 C.3       1 <0>        -0.0554
     26 C23         8.7606    0.5212    0.0645 C.3       1 <0>        -0.0653
     27 H1         -0.8377   -1.1280   -1.5323 H         1 <0>         0.0310
     28 H2         -2.2601   -0.7569    1.1340 H         1 <0>         0.0310
     29 H3         -2.8147    0.2561   -1.7143 H         1 <0>         0.0352
     30 H4          1.4669   -0.3291   -1.6661 H         1 <0>         0.0739
     31 H5         -0.3137    1.2742   -1.7957 H         1 <0>         0.0272
     32 H6          0.1989    2.2374   -0.4204 H         1 <0>         0.0272
     33 H7         -0.3072   -3.1984   -0.5433 H         1 <0>         0.0269
     34 H8         -0.2175   -2.5226    1.0878 H         1 <0>         0.0269
     35 H9         -1.9808    1.9630    0.6736 H         1 <0>         0.0271
     36 H10        -2.2044    2.4899   -0.9829 H         1 <0>         0.0271
     37 H11         2.0303   -2.1383    0.7051 H         1 <0>         0.0301
     38 H12         1.8592   -2.5318   -1.0064 H         1 <0>         0.0301
     39 H13        -2.7332   -2.9962    0.0577 H         1 <0>         0.0271
     40 H14        -3.2441   -2.1451   -1.3982 H         1 <0>         0.0271
     41 H15         0.8831    1.1836    1.7150 H         1 <0>         0.0236
     42 H16        -0.7506    0.5849    1.9594 H         1 <0>         0.0236
     43 H17         0.6094   -0.5257    2.0407 H         1 <0>         0.0236
     44 H18        -4.4684   -2.0564    1.3911 H         1 <0>         0.0313
     45 H19        -5.2210   -2.5820   -0.1210 H         1 <0>         0.0313
     46 H20        -4.3246    2.7542   -0.7397 H         1 <0>         0.0622
     47 H21        -7.0553   -1.0879    0.7737 H         1 <0>         0.0657
     48 H22        -6.6732    3.0716   -0.2113 H         1 <0>         0.0654
     49 H23         4.7579    1.6385   -0.0828 H         1 <0>         0.0377
     50 H24         4.7609    0.5233    1.3104 H         1 <0>         0.0377
     51 H25         6.4130   -0.9341    0.1423 H         1 <0>         0.0270
     52 H26         6.3930    0.1362   -1.2548 H         1 <0>         0.0270
     53 H27        -8.5599    2.1280    0.4737 H         1 <0>         0.2921
     54 H28         7.2853    0.9284    1.5707 H         1 <0>         0.0263
     55 H29         7.2341    2.0231    0.1871 H         1 <0>         0.0263
     56 H30         8.9416   -0.5149    0.3679 H         1 <0>         0.0230
     57 H31         8.8886    0.5890   -1.0206 H         1 <0>         0.0230
     58 H32         9.5212    1.1512    0.5361 H         1 <0>         0.0230
@<TRIPOS>BOND
     1    1    8 1
     2    1   20 1
     3    2   20 2
     4    3   22 1
     5    3   53 1
     6    4    5 1
     7    4    8 1
     8    4    9 1
     9    4   14 1
    10    5    6 1
    11    5   10 1
    12    5   27 1
    13    6    7 1
    14    6   13 1
    15    6   28 1
    16    7   11 1
    17    7   15 1
    18    7   29 1
    19    8   12 1
    20    8   30 1
    21    9   11 1
    22    9   31 1
    23    9   32 1
    24   10   12 1
    25   10   33 1
    26   10   34 1
    27   11   35 1
    28   11   36 1
    29   12   37 1
    30   12   38 1
    31   13   16 1
    32   13   39 1
    33   13   40 1
    34   14   41 1
    35   14   42 1
    36   14   43 1
    37   15   17 ar
    38   15   18 ar
    39   16   17 1
    40   16   44 1
    41   16   45 1
    42   17   19 ar
    43   18   21 ar
    44   18   46 1
    45   19   22 ar
    46   19   47 1
    47   20   23 1
    48   21   22 ar
    49   21   48 1
    50   23   24 1
    51   23   49 1
    52   23   50 1
    53   24   25 1
    54   24   51 1
    55   24   52 1
    56   25   26 1
    57   25   54 1
    58   25   55 1
    59   26   56 1
    60   26   57 1
    61   26   58 1
