@<TRIPOS>MOLECULE
DB13981
   57    60     0     0     0
SMALL
USER_CHARGES

@<TRIPOS>ATOM
      1 O1          3.0991    0.2391    1.1005 O.3       1 <0>        -0.4500
      2 O2          4.9111   -0.1674   -1.5948 O.2       1 <0>        -0.2934
      3 O3         -6.7530   -0.7741    1.2833 O.2       1 <0>        -0.2927
      4 O4          5.1577    1.2535    0.8354 O.2       1 <0>        -0.2511
      5 C1          1.5377   -0.3785   -0.6874 C.3       1 <0>         0.0182
      6 C2          0.6608    0.8664   -0.3915 C.3       1 <0>        -0.0249
      7 C3         -0.8141    0.6421   -0.7483 C.3       1 <0>        -0.0155
      8 C4          2.9298    0.1921   -0.3131 C.3       1 <0>         0.1759
      9 C5         -1.3467   -0.5329    0.1193 C.3       1 <0>        -0.0276
     10 C6          1.0167   -1.5391    0.1774 C.3       1 <0>        -0.0430
     11 C7          1.4268    2.0006   -1.0696 C.3       1 <0>        -0.0450
     12 C8         -0.4833   -1.8032   -0.0539 C.3       1 <0>        -0.0485
     13 C9          2.9122    1.6312   -0.8747 C.3       1 <0>        -0.0049
     14 C10        -2.8563   -0.7362   -0.1779 C.3       1 <0>        -0.0117
     15 C11         1.5203   -0.8071   -2.1819 C.3       1 <0>        -0.0552
     16 C12        -1.6743    1.8617   -0.5558 C.2       1 <0>        -0.0772
     17 C13         4.0801   -0.6293   -0.8143 C.2       1 <0>         0.1741
     18 C14        -3.6409    0.5465    0.1302 C.2       1 <0>        -0.0381
     19 C15        -3.4268   -1.9427    0.5877 C.3       1 <0>        -0.0389
     20 C16        -2.9554    1.8243   -0.1412 C.2       1 <0>        -0.0505
     21 C17        -4.9307   -2.0552    0.4123 C.3       1 <0>         0.0104
     22 C18        -4.8940    0.5034    0.6207 C.2       1 <0>        -0.0155
     23 C19         4.1694   -2.0454   -0.3134 C.3       1 <0>        -0.0020
     24 C20        -3.7131    3.1194    0.0107 C.3       1 <0>        -0.0397
     25 C21        -5.6090   -0.7794    0.8323 C.2       1 <0>         0.1564
     26 C22         4.2657    0.7990    1.5389 C.2       1 <0>         0.3049
     27 C23         4.3051    0.7810    3.0370 C.3       1 <0>         0.0333
     28 H1          0.6968    1.0773    0.6904 H         1 <0>         0.0313
     29 H2         -0.8959    0.3861   -1.8113 H         1 <0>         0.0349
     30 H3         -1.2556   -0.2447    1.1794 H         1 <0>         0.0312
     31 H4          1.1615   -1.3216    1.2427 H         1 <0>         0.0272
     32 H5          1.5560   -2.4680   -0.0274 H         1 <0>         0.0272
     33 H6          1.2010    2.9724   -0.6184 H         1 <0>         0.0270
     34 H7          1.1847    2.0680   -2.1362 H         1 <0>         0.0270
     35 H8         -0.6443   -2.2306   -1.0501 H         1 <0>         0.0268
     36 H9         -0.7944   -2.5689    0.6659 H         1 <0>         0.0268
     37 H10         3.4157    1.7203   -1.8439 H         1 <0>         0.0308
     38 H11         3.3536    2.3823   -0.2136 H         1 <0>         0.0308
     39 H12        -2.9705   -0.9371   -1.2536 H         1 <0>         0.0352
     40 H13         0.5141   -1.0260   -2.5478 H         1 <0>         0.0237
     41 H14         1.9358   -0.0401   -2.8431 H         1 <0>         0.0237
     42 H15         2.1048   -1.7184   -2.3427 H         1 <0>         0.0237
     43 H16        -1.2273    2.8224   -0.7985 H         1 <0>         0.0578
     44 H17        -3.1883   -1.8526    1.6559 H         1 <0>         0.0275
     45 H18        -2.9716   -2.8733    0.2313 H         1 <0>         0.0275
     46 H19        -5.3080   -2.8745    1.0338 H         1 <0>         0.0345
     47 H20        -5.1935   -2.2609   -0.6309 H         1 <0>         0.0345
     48 H21        -5.4665    1.3925    0.8613 H         1 <0>         0.0655
     49 H22         3.8283   -2.1343    0.7200 H         1 <0>         0.0307
     50 H23         3.6049   -2.7166   -0.9619 H         1 <0>         0.0307
     51 H24         5.2198   -2.3536   -0.3314 H         1 <0>         0.0307
     52 H25        -4.0208    3.2694    1.0512 H         1 <0>         0.0278
     53 H26        -4.6013    3.1286   -0.6304 H         1 <0>         0.0278
     54 H27        -3.1077    3.9885   -0.2711 H         1 <0>         0.0278
     55 H28         4.2608   -0.2504    3.3956 H         1 <0>         0.0342
     56 H29         3.4715    1.3642    3.4360 H         1 <0>         0.0342
     57 H30         5.2413    1.2300    3.3807 H         1 <0>         0.0342
@<TRIPOS>BOND
     1    1    8 1
     2    1   26 1
     3    2   17 2
     4    3   25 2
     5    4   26 2
     6    5    6 1
     7    5    8 1
     8    5   10 1
     9    5   15 1
    10    6    7 1
    11    6   11 1
    12    6   28 1
    13    7    9 1
    14    7   16 1
    15    7   29 1
    16    8   13 1
    17    8   17 1
    18    9   12 1
    19    9   14 1
    20    9   30 1
    21   10   12 1
    22   10   31 1
    23   10   32 1
    24   11   13 1
    25   11   33 1
    26   11   34 1
    27   12   35 1
    28   12   36 1
    29   13   37 1
    30   13   38 1
    31   14   18 1
    32   14   19 1
    33   14   39 1
    34   15   40 1
    35   15   41 1
    36   15   42 1
    37   16   20 2
    38   16   43 1
    39   17   23 1
    40   18   20 1
    41   18   22 2
    42   19   21 1
    43   19   44 1
    44   19   45 1
    45   20   24 1
    46   21   25 1
    47   21   46 1
    48   21   47 1
    49   22   25 1
    50   22   48 1
    51   23   49 1
    52   23   50 1
    53   23   51 1
    54   24   52 1
    55   24   53 1
    56   24   54 1
    57   26   27 1
    58   27   55 1
    59   27   56 1
    60   27   57 1
