@<TRIPOS>MOLECULE
DB13136
   27    29     0     0     0
SMALL
USER_CHARGES

@<TRIPOS>ATOM
      1 F1          5.2328   -0.9523   -1.3053 F         1 <0>        -0.2055
      2 O1         -0.2746   -1.5649    1.9750 O.2       1 <0>        -0.2909
      3 O2         -0.1609    2.4792   -0.5058 O.2       1 <0>        -0.2909
      4 C1          0.3460    0.6012    0.9960 C.3       1 <0>         0.1098
      5 C2         -0.5473   -0.5934    1.2953 C.2       1 <0>         0.1787
      6 C3         -0.4895    1.4453    0.0449 C.2       1 <0>         0.1787
      7 C4         -1.8272   -0.3882    0.6136 C.ar      1 <0>         0.0289
      8 C5         -1.7936    0.7980   -0.1139 C.ar      1 <0>         0.0289
      9 C6          1.6389    0.1908    0.3867 C.ar      1 <0>        -0.0292
     10 C7         -2.9442   -1.2008    0.6260 C.ar      1 <0>        -0.0506
     11 C8         -2.8755    1.2229   -0.8601 C.ar      1 <0>        -0.0506
     12 C9          2.7894    0.9537    0.6009 C.ar      1 <0>        -0.0548
     13 C10         1.7086   -0.9601   -0.4022 C.ar      1 <0>        -0.0548
     14 C11        -4.0497   -0.7856   -0.1216 C.ar      1 <0>        -0.0611
     15 C12        -4.0157    0.4148   -0.8575 C.ar      1 <0>        -0.0611
     16 C13         4.0021    0.5681    0.0296 C.ar      1 <0>        -0.0262
     17 C14         2.9213   -1.3457   -0.9731 C.ar      1 <0>        -0.0262
     18 C15         4.0681   -0.5817   -0.7573 C.ar      1 <0>         0.1234
     19 H1          0.4788    1.1553    1.9327 H         1 <0>         0.0511
     20 H2         -2.9725   -2.1265    1.1891 H         1 <0>         0.0625
     21 H3         -2.8514    2.1448   -1.4298 H         1 <0>         0.0625
     22 H4          2.7512    1.8526    1.2109 H         1 <0>         0.0621
     23 H5          0.8341   -1.5695   -0.6118 H         1 <0>         0.0621
     24 H6         -4.9484   -1.3966   -0.1380 H         1 <0>         0.0618
     25 H7         -4.8886    0.7140   -1.4318 H         1 <0>         0.0618
     26 H8          4.8952    1.1628    0.1973 H         1 <0>         0.0646
     27 H9          2.9725   -2.2382   -1.5899 H         1 <0>         0.0646
@<TRIPOS>BOND
     1    1   18 1
     2    2    5 2
     3    3    6 2
     4    4    5 1
     5    4    6 1
     6    4    9 1
     7    4   19 1
     8    5    7 1
     9    6    8 1
    10    7    8 ar
    11    7   10 ar
    12    8   11 ar
    13    9   12 ar
    14    9   13 ar
    15   10   14 ar
    16   10   20 1
    17   11   15 ar
    18   11   21 1
    19   12   16 ar
    20   12   22 1
    21   13   17 ar
    22   13   23 1
    23   14   15 ar
    24   14   24 1
    25   15   25 1
    26   16   18 ar
    27   16   26 1
    28   17   18 ar
    29   17   27 1
