@<TRIPOS>MOLECULE
DB13158
   54    57     0     0     0
SMALL
USER_CHARGES

@<TRIPOS>ATOM
      1 Cl1         6.5982   -1.4397   -0.3327 Cl        1 <0>        -0.1173
      2 F1         -1.6495   -0.4896    1.5742 F         1 <0>        -0.2323
      3 O1          2.7426   -0.7657    1.9388 O.3       1 <0>        -0.3802
      4 O2         -1.2245   -2.7599   -0.8062 O.2       1 <0>        -0.2940
      5 O3          3.7467   -2.0409   -0.8740 O.2       1 <0>        -0.2931
      6 O4         -6.5557   -0.0550    1.9611 O.2       1 <0>        -0.2879
      7 C1          1.4317   -0.6498   -0.1188 C.3       1 <0>         0.0139
      8 C2          0.6623    0.6122    0.3457 C.3       1 <0>        -0.0257
      9 C3         -0.7530    0.7069   -0.2487 C.3       1 <0>         0.0049
     10 C4          2.8093   -0.3915    0.5558 C.3       1 <0>         0.1332
     11 C5         -1.5797   -0.5446    0.1987 C.3       1 <0>         0.1841
     12 C6          1.6475    1.7412    0.0602 C.3       1 <0>        -0.0436
     13 C7          3.0184    1.1533    0.4818 C.3       1 <0>        -0.0072
     14 C8          0.6541   -1.8778    0.3750 C.3       1 <0>         0.0178
     15 C9         -3.0618   -0.5008   -0.3160 C.3       1 <0>         0.0488
     16 C10        -1.4467    2.0084    0.1844 C.3       1 <0>        -0.0429
     17 C11        -0.7722   -1.8177   -0.1594 C.2       1 <0>         0.1721
     18 C12         1.5844   -0.7437   -1.6630 C.3       1 <0>        -0.0559
     19 C13        -2.8819    2.0798   -0.3257 C.3       1 <0>        -0.0300
     20 C14        -3.6554    0.8549    0.0953 C.2       1 <0>        -0.0528
     21 C15         3.9290   -1.2559    0.0553 C.2       1 <0>         0.1798
     22 C16         4.1211    1.6456   -0.4513 C.3       1 <0>        -0.0594
     23 C17        -3.1721   -0.6297   -1.8527 C.3       1 <0>        -0.0490
     24 C18        -3.8628   -1.6500    0.2831 C.2       1 <0>        -0.0671
     25 C19        -4.7712    0.9894    0.8296 C.2       1 <0>        -0.0148
     26 C20         5.2536   -1.0899    0.7638 C.3       1 <0>         0.0838
     27 C21        -4.9730   -1.5204    1.0162 C.2       1 <0>        -0.0179
     28 C22        -5.5199   -0.1857    1.3178 C.2       1 <0>         0.1787
     29 H1          0.5457    0.5730    1.4409 H         1 <0>         0.0311
     30 H2         -0.6878    0.7354   -1.3402 H         1 <0>         0.0339
     31 H3          1.6318    2.0141   -1.0015 H         1 <0>         0.0272
     32 H4          1.4156    2.6427    0.6370 H         1 <0>         0.0272
     33 H5          3.2401    1.5462    1.4833 H         1 <0>         0.0330
     34 H6          0.5865   -1.9219    1.4676 H         1 <0>         0.0349
     35 H7          1.1267   -2.8081    0.0408 H         1 <0>         0.0349
     36 H8         -0.8958    2.8753   -0.1986 H         1 <0>         0.0272
     37 H9         -1.4421    2.0895    1.2794 H         1 <0>         0.0272
     38 H10         1.8452   -1.7531   -1.9969 H         1 <0>         0.0236
     39 H11         0.6491   -0.5308   -2.1871 H         1 <0>         0.0236
     40 H12         2.3243   -0.0470   -2.0641 H         1 <0>         0.0236
     41 H13        -2.8904    2.1666   -1.4182 H         1 <0>         0.0310
     42 H14        -3.3461    2.9975    0.0560 H         1 <0>         0.0310
     43 H15         4.0929    1.1520   -1.4264 H         1 <0>         0.0233
     44 H16         4.0104    2.7219   -0.6284 H         1 <0>         0.0233
     45 H17         5.1188    1.5159   -0.0294 H         1 <0>         0.0233
     46 H18         3.4785   -0.3510    2.4193 H         1 <0>         0.2108
     47 H19        -2.8905   -1.6261   -2.2088 H         1 <0>         0.0242
     48 H20        -4.2032   -0.4589   -2.1888 H         1 <0>         0.0242
     49 H21        -2.5409    0.0890   -2.3838 H         1 <0>         0.0242
     50 H22        -3.5269   -2.6641    0.0832 H         1 <0>         0.0583
     51 H23        -5.1577    1.9640    1.1087 H         1 <0>         0.0656
     52 H24         5.2945   -1.8182    1.5795 H         1 <0>         0.0509
     53 H25         5.4032   -0.1005    1.1910 H         1 <0>         0.0509
     54 H26        -5.5012   -2.3867    1.3973 H         1 <0>         0.0653
@<TRIPOS>BOND
     1    1   26 1
     2    2   11 1
     3    3   10 1
     4    3   46 1
     5    4   17 2
     6    5   21 2
     7    6   28 2
     8    7    8 1
     9    7   10 1
    10    7   14 1
    11    7   18 1
    12    8    9 1
    13    8   12 1
    14    8   29 1
    15    9   11 1
    16    9   16 1
    17    9   30 1
    18   10   13 1
    19   10   21 1
    20   11   15 1
    21   11   17 1
    22   12   13 1
    23   12   31 1
    24   12   32 1
    25   13   22 1
    26   13   33 1
    27   14   17 1
    28   14   34 1
    29   14   35 1
    30   15   20 1
    31   15   23 1
    32   15   24 1
    33   16   19 1
    34   16   36 1
    35   16   37 1
    36   18   38 1
    37   18   39 1
    38   18   40 1
    39   19   20 1
    40   19   41 1
    41   19   42 1
    42   20   25 2
    43   21   26 1
    44   22   43 1
    45   22   44 1
    46   22   45 1
    47   23   47 1
    48   23   48 1
    49   23   49 1
    50   24   27 2
    51   24   50 1
    52   25   28 1
    53   25   51 1
    54   26   52 1
    55   26   53 1
    56   27   28 1
    57   27   54 1
