@<TRIPOS>MOLECULE
DB13267
   26    25     0     0     0
SMALL
USER_CHARGES

@<TRIPOS>ATOM
      1 S1         -1.4545    0.9421   -0.6772 S.3       1 <0>        -0.1246
      2 S2          1.5428    0.7880   -0.6773 S.3       1 <0>        -0.1246
      3 S3         -0.0891   -1.7303   -0.6775 S.3       1 <0>        -0.1246
      4 O1         -5.0565    0.3239    0.6511 O.3       1 <0>        -0.4800
      5 O2          2.8092    4.2163    0.6512 O.3       1 <0>        -0.4800
      6 O3          2.2480   -4.5401    0.6513 O.3       1 <0>        -0.4800
      7 O4         -4.3245    1.1624   -1.3303 O.2       1 <0>        -0.2501
      8 O5          3.1690    3.1631   -1.3304 O.2       1 <0>        -0.2501
      9 O6          1.1560   -4.3258   -1.3303 O.2       1 <0>        -0.2501
     10 C1         -0.0004    0.0000   -0.0773 C.3       1 <0>         0.0980
     11 C2         -2.7769   -0.0442    0.0692 C.3       1 <0>         0.0927
     12 C3          1.3503    2.4264    0.0692 C.3       1 <0>         0.0927
     13 C4          1.4265   -2.3821    0.0691 C.3       1 <0>         0.0927
     14 C5         -4.1077    0.5504   -0.2923 C.2       1 <0>         0.3147
     15 C6          2.5306    3.2814   -0.2923 C.2       1 <0>         0.3147
     16 C7          1.5773   -3.8317   -0.2922 C.2       1 <0>         0.3147
     17 H1         -0.0004   -0.0001    1.0168 H         1 <0>         0.0641
     18 H2         -2.6564   -0.0236    1.1563 H         1 <0>         0.0491
     19 H3         -2.7838   -1.0755   -0.2897 H         1 <0>         0.0491
     20 H4          1.3078    2.3117    1.1563 H         1 <0>         0.0491
     21 H5          0.4605    2.9481   -0.2894 H         1 <0>         0.0491
     22 H6          1.3483   -2.2879    1.1562 H         1 <0>         0.0491
     23 H7          2.3229   -1.8723   -0.2896 H         1 <0>         0.0491
     24 H8         -5.9222    0.7109    0.3999 H         1 <0>         0.2951
     25 H9          3.5774    4.7722    0.3998 H         1 <0>         0.2951
     26 H10         2.3458   -5.4833    0.4001 H         1 <0>         0.2951
@<TRIPOS>BOND
     1    1   10 1
     2    1   11 1
     3    2   10 1
     4    2   12 1
     5    3   10 1
     6    3   13 1
     7    4   14 1
     8    4   24 1
     9    5   15 1
    10    5   25 1
    11    6   16 1
    12    6   26 1
    13    7   14 2
    14    8   15 2
    15    9   16 2
    16   10   17 1
    17   11   14 1
    18   11   18 1
    19   11   19 1
    20   12   15 1
    21   12   20 1
    22   12   21 1
    23   13   16 1
    24   13   22 1
    25   13   23 1
