@<TRIPOS>MOLECULE
DB13747
   25    24     0     0     0
SMALL
USER_CHARGES

@<TRIPOS>ATOM
      1 O1         -3.6648   -0.2069   -0.2553 O.3       1 <0>        -0.3937
      2 O2          1.6265    3.3171    0.0997 O.3       1 <0>        -0.3937
      3 O3          2.0370   -2.9902   -0.2744 O.3       1 <0>        -0.3937
      4 N1         -0.0206    0.0231    0.2470 N.3       1 <0>        -0.2958
      5 C1         -1.3515    0.4008   -0.2270 C.3       1 <0>         0.0223
      6 C2          0.9654    1.0311   -0.1413 C.3       1 <0>         0.0223
      7 C3          0.3557   -1.2889   -0.2783 C.3       1 <0>         0.0223
      8 C4         -2.3876   -0.6218    0.2113 C.3       1 <0>         0.0569
      9 C5          0.6359    2.3749    0.4889 C.3       1 <0>         0.0569
     10 C6          1.7204   -1.7059    0.2464 C.3       1 <0>         0.0569
     11 H1         -1.3807    0.5173   -1.3188 H         1 <0>         0.0449
     12 H2         -1.6876    1.3532    0.1936 H         1 <0>         0.0449
     13 H3          1.0406    1.1304   -1.2324 H         1 <0>         0.0449
     14 H4          1.9714    0.7960    0.2168 H         1 <0>         0.0449
     15 H5          0.3545   -1.3083   -1.3764 H         1 <0>         0.0449
     16 H6         -0.3269   -2.0792    0.0476 H         1 <0>         0.0449
     17 H7         -2.4269   -0.7080    1.3025 H         1 <0>         0.0570
     18 H8         -2.2307   -1.6109   -0.2233 H         1 <0>         0.0570
     19 H9          0.6355    2.3148    1.5821 H         1 <0>         0.0570
     20 H10        -0.3164    2.7978    0.1635 H         1 <0>         0.0570
     21 H11         1.7277   -1.7623    1.3401 H         1 <0>         0.0570
     22 H12         2.5317   -1.0566   -0.0868 H         1 <0>         0.0570
     23 H13        -4.3105   -0.8652    0.0534 H         1 <0>         0.2095
     24 H14         1.5995    3.3900   -0.8698 H         1 <0>         0.2095
     25 H15         2.9022   -3.2425    0.0910 H         1 <0>         0.2095
@<TRIPOS>BOND
     1    1    8 1
     2    1   23 1
     3    2    9 1
     4    2   24 1
     5    3   10 1
     6    3   25 1
     7    4    5 1
     8    4    6 1
     9    4    7 1
    10    5    8 1
    11    5   11 1
    12    5   12 1
    13    6    9 1
    14    6   13 1
    15    6   14 1
    16    7   10 1
    17    7   15 1
    18    7   16 1
    19    8   17 1
    20    8   18 1
    21    9   19 1
    22    9   20 1
    23   10   21 1
    24   10   22 1
