@<TRIPOS>MOLECULE
DB13944
   69    72     0     0     0
SMALL
USER_CHARGES

@<TRIPOS>ATOM
      1 O1          1.9143    0.0359    0.0148 O.3       1 <0>        -0.4608
      2 O2         -8.7852   -0.8027    1.5785 O.2       1 <0>        -0.2927
      3 O3          3.2204    1.4484    1.2876 O.2       1 <0>        -0.2508
      4 C1         -1.5286    1.2030    0.2860 C.3       1 <0>        -0.0290
      5 C2         -0.5476    0.0817   -0.1066 C.3       1 <0>         0.0081
      6 C3         -2.9417    0.9687   -0.2567 C.3       1 <0>        -0.0337
      7 C4         -3.4829   -0.3792    0.3163 C.3       1 <0>        -0.0288
      8 C5         -4.9569   -0.6945   -0.1493 C.3       1 <0>        -0.0072
      9 C6         -1.0454   -1.2259    0.5218 C.3       1 <0>        -0.0437
     10 C7         -2.4861   -1.5493    0.0861 C.3       1 <0>        -0.0485
     11 C8          0.7423    0.6469    0.5184 C.3       1 <0>         0.1087
     12 C9         -0.7849    2.4786   -0.1017 C.3       1 <0>        -0.0460
     13 C10        -3.8842    2.1180    0.1215 C.3       1 <0>        -0.0459
     14 C11         0.6920    2.1504    0.1831 C.3       1 <0>        -0.0149
     15 C12        -5.8419    0.5371    0.0824 C.2       1 <0>        -0.0601
     16 C13        -0.3659   -0.1136   -1.6334 C.3       1 <0>        -0.0559
     17 C14        -5.2958    1.8636   -0.3910 C.3       1 <0>        -0.0305
     18 C15        -5.4872   -1.8956    0.6869 C.3       1 <0>        -0.0367
     19 C16        -5.0238   -1.0606   -1.6493 C.3       1 <0>        -0.0556
     20 C17        -6.9961   -2.0692    0.6160 C.3       1 <0>         0.0107
     21 C18        -7.0587    0.4917    0.6505 C.2       1 <0>        -0.0194
     22 C19        -7.6899   -0.7957    1.0205 C.2       1 <0>         0.1561
     23 C20         3.1055    0.5339    0.4833 C.2       1 <0>         0.3074
     24 C21         4.2533   -0.2435   -0.1224 C.3       1 <0>         0.0449
     25 C22         5.6194    0.1840    0.4137 C.3       1 <0>        -0.0430
     26 C23         6.7692   -0.6076   -0.2172 C.3       1 <0>        -0.0526
     27 C24         8.1240   -0.1390    0.3173 C.3       1 <0>        -0.0533
     28 C25         9.2742   -0.9081   -0.3321 C.3       1 <0>        -0.0559
     29 C26        10.6205   -0.4683    0.2204 C.3       1 <0>        -0.0653
     30 H1         -1.6112    1.2235    1.3859 H         1 <0>         0.0310
     31 H2         -2.9033    0.9172   -1.3502 H         1 <0>         0.0307
     32 H3         -3.5261   -0.2431    1.4096 H         1 <0>         0.0312
     33 H4         -1.0223   -1.1506    1.6168 H         1 <0>         0.0272
     34 H5         -0.3838   -2.0592    0.2564 H         1 <0>         0.0272
     35 H6         -2.8103   -2.4323    0.6477 H         1 <0>         0.0268
     36 H7         -2.4810   -1.8414   -0.9686 H         1 <0>         0.0268
     37 H8          0.7146    0.5116    1.6089 H         1 <0>         0.0739
     38 H9         -0.9255    2.7185   -1.1614 H         1 <0>         0.0269
     39 H10        -1.1204    3.3425    0.4812 H         1 <0>         0.0269
     40 H11        -3.9043    2.2479    1.2114 H         1 <0>         0.0271
     41 H12        -3.5204    3.0606   -0.3039 H         1 <0>         0.0271
     42 H13         1.3146    2.4119   -0.6799 H         1 <0>         0.0301
     43 H14         1.0462    2.7465    1.0316 H         1 <0>         0.0301
     44 H15        -1.3012   -0.3587   -2.1435 H         1 <0>         0.0236
     45 H16         0.3313   -0.9350   -1.8360 H         1 <0>         0.0236
     46 H17         0.0383    0.7776   -2.1235 H         1 <0>         0.0236
     47 H18        -5.9383    2.6947   -0.0747 H         1 <0>         0.0310
     48 H19        -5.2958    1.8770   -1.4879 H         1 <0>         0.0310
     49 H20        -5.2118   -1.7565    1.7420 H         1 <0>         0.0278
     50 H21        -5.0152   -2.8313    0.3644 H         1 <0>         0.0278
     51 H22        -4.5359   -0.3121   -2.2814 H         1 <0>         0.0238
     52 H23        -4.5437   -2.0238   -1.8513 H         1 <0>         0.0238
     53 H24        -6.0601   -1.1425   -1.9977 H         1 <0>         0.0238
     54 H25        -7.3277   -2.3470   -0.3893 H         1 <0>         0.0345
     55 H26        -7.2986   -2.8643    1.3066 H         1 <0>         0.0345
     56 H27        -7.6506    1.3868    0.8095 H         1 <0>         0.0652
     57 H28         4.0948   -1.3059    0.0956 H         1 <0>         0.0377
     58 H29         4.2216   -0.0970   -1.2080 H         1 <0>         0.0377
     59 H30         5.6399    0.0560    1.5034 H         1 <0>         0.0270
     60 H31         5.7646    1.2549    0.2234 H         1 <0>         0.0270
     61 H32         6.7415   -0.4855   -1.3067 H         1 <0>         0.0265
     62 H33         6.6379   -1.6759   -0.0071 H         1 <0>         0.0265
     63 H34         8.1558   -0.2770    1.4050 H         1 <0>         0.0265
     64 H35         8.2460    0.9338    0.1242 H         1 <0>         0.0265
     65 H36         9.1490   -1.9831   -0.1574 H         1 <0>         0.0263
     66 H37         9.2609   -0.7520   -1.4170 H         1 <0>         0.0263
     67 H38        10.6780   -0.6433    1.2995 H         1 <0>         0.0230
     68 H39        11.4286   -1.0302   -0.2583 H         1 <0>         0.0230
     69 H40        10.7913    0.5970    0.0352 H         1 <0>         0.0230
@<TRIPOS>BOND
     1    1   11 1
     2    1   23 1
     3    2   22 2
     4    3   23 2
     5    4    5 1
     6    4    6 1
     7    4   12 1
     8    4   30 1
     9    5    9 1
    10    5   11 1
    11    5   16 1
    12    6    7 1
    13    6   13 1
    14    6   31 1
    15    7    8 1
    16    7   10 1
    17    7   32 1
    18    8   15 1
    19    8   18 1
    20    8   19 1
    21    9   10 1
    22    9   33 1
    23    9   34 1
    24   10   35 1
    25   10   36 1
    26   11   14 1
    27   11   37 1
    28   12   14 1
    29   12   38 1
    30   12   39 1
    31   13   17 1
    32   13   40 1
    33   13   41 1
    34   14   42 1
    35   14   43 1
    36   15   17 1
    37   15   21 2
    38   16   44 1
    39   16   45 1
    40   16   46 1
    41   17   47 1
    42   17   48 1
    43   18   20 1
    44   18   49 1
    45   18   50 1
    46   19   51 1
    47   19   52 1
    48   19   53 1
    49   20   22 1
    50   20   54 1
    51   20   55 1
    52   21   22 1
    53   21   56 1
    54   23   24 1
    55   24   25 1
    56   24   57 1
    57   24   58 1
    58   25   26 1
    59   25   59 1
    60   25   60 1
    61   26   27 1
    62   26   61 1
    63   26   62 1
    64   27   28 1
    65   27   63 1
    66   27   64 1
    67   28   29 1
    68   28   65 1
    69   28   66 1
    70   29   67 1
    71   29   68 1
    72   29   69 1
