@<TRIPOS>MOLECULE
DB13680
   25    26     0     0     0
SMALL
USER_CHARGES

@<TRIPOS>ATOM
      1 O1         -0.2976    2.5619   -0.2208 O.2       1 <0>        -0.2849
      2 O2          4.4273    1.7961    0.7267 O.2       1 <0>        -0.2513
      3 N1          1.9590    1.0989   -0.2697 N.2       1 <0>        -0.1753
      4 N2          3.0151    0.2564   -0.2849 N.am      1 <0>        -0.1903
      5 N3          5.2025   -0.2870    0.1490 N.am      1 <0>        -0.3120
      6 C1         -1.7316    0.6843   -0.0535 C.ar      1 <0>         0.0310
      7 C2         -1.7812   -0.7136    0.0170 C.ar      1 <0>        -0.0141
      8 C3         -0.4192    1.3490   -0.1553 C.2       1 <0>         0.2133
      9 C4         -0.5563   -1.5153   -0.0089 C.2       1 <0>        -0.0517
     10 C5          0.8206    0.4962   -0.1798 C.2       1 <0>         0.1290
     11 C6         -2.9031    1.4470   -0.0290 C.ar      1 <0>        -0.0503
     12 C7         -3.0295   -1.3411    0.1136 C.ar      1 <0>        -0.0539
     13 C8          0.6610   -0.9704   -0.1000 C.2       1 <0>        -0.0304
     14 C9         -4.1384    0.8084    0.0673 C.ar      1 <0>        -0.0611
     15 C10        -4.2019   -0.5824    0.1385 C.ar      1 <0>        -0.0612
     16 C11         4.2240    0.6859    0.2372 C.2       1 <0>         0.3165
     17 H1         -0.6562   -2.5943    0.0615 H         1 <0>         0.0624
     18 H2         -2.8723    2.5315   -0.0835 H         1 <0>         0.0625
     19 H3         -3.1048   -2.4246    0.1703 H         1 <0>         0.0624
     20 H4          1.5044   -1.6478   -0.0797 H         1 <0>         0.0641
     21 H5         -5.0525    1.3947    0.0870 H         1 <0>         0.0618
     22 H6         -5.1658   -1.0779    0.2134 H         1 <0>         0.0618
     23 H7          2.9410   -0.6395   -0.7501 H         1 <0>         0.1788
     24 H8          6.1430   -0.1195    0.4907 H         1 <0>         0.1465
     25 H9          5.0125   -1.1970   -0.2570 H         1 <0>         0.1465
@<TRIPOS>BOND
     1    1    8 2
     2    2   16 2
     3    3    4 1
     4    3   10 2
     5    4   16 am
     6    4   23 1
     7    5   16 am
     8    5   24 1
     9    5   25 1
    10    6    7 ar
    11    6    8 1
    12    6   11 ar
    13    7    9 1
    14    7   12 ar
    15    8   10 1
    16    9   13 2
    17    9   17 1
    18   10   13 1
    19   11   14 ar
    20   11   18 1
    21   12   15 ar
    22   12   19 1
    23   13   20 1
    24   14   15 ar
    25   14   21 1
    26   15   22 1
