@<TRIPOS>MOLECULE
DB13520
   59    63     0     0     0
SMALL
USER_CHARGES

@<TRIPOS>ATOM
      1 O1         -4.2265    0.7232    0.1243 O.3       1 <0>        -0.4456
      2 O2         -3.4160    2.6652   -0.7961 O.2       1 <0>        -0.2265
      3 N1          2.2448    2.7518   -0.4922 N.3       1 <0>        -0.3012
      4 N2          5.5476   -2.2728   -0.1628 N.pl3     1 <0>        -0.3494
      5 N3         -2.3242    1.6070    0.9589 N.am      1 <0>        -0.2808
      6 C1          1.6739    0.3173   -0.2099 C.3       1 <0>         0.0010
      7 C2          2.7966    1.4376   -0.0791 C.3       1 <0>         0.0210
      8 C3          0.4419    0.7052    0.6188 C.3       1 <0>        -0.0393
      9 C4         -0.0483    2.1032    0.2353 C.3       1 <0>        -0.0120
     10 C5          4.1081    1.0625   -0.8712 C.3       1 <0>        -0.0095
     11 C6          1.0891    3.1247    0.3429 C.3       1 <0>         0.0032
     12 C7          2.2253   -1.0546    0.1420 C.2       1 <0>        -0.0334
     13 C8          3.5936   -1.2591   -0.0762 C.2       1 <0>         0.0065
     14 C9          4.5396   -0.3266   -0.5455 C.2       1 <0>        -0.0204
     15 C10        -1.2305    2.5168    1.1114 C.3       1 <0>         0.0187
     16 C11         4.2222   -2.4670    0.1603 C.2       1 <0>         0.0494
     17 C12         3.2374    3.8292   -0.4379 C.3       1 <0>        -0.0124
     18 C13         1.5019   -2.1671    0.5916 C.2       1 <0>        -0.0576
     19 C14         5.7498   -0.9779   -0.5951 C.2       1 <0>         0.0086
     20 C15         3.5155   -3.5732    0.6296 C.2       1 <0>        -0.0376
     21 C16         2.1384   -3.3948    0.8362 C.2       1 <0>        -0.0595
     22 C17         6.5889   -3.2731   -0.0700 C.3       1 <0>         0.0119
     23 C18        -3.3323    1.7510    0.0176 C.2       1 <0>         0.4006
     24 C19        -5.3236    0.7520   -0.7958 C.3       1 <0>         0.1191
     25 C20        -6.2036   -0.4374   -0.5459 C.ar      1 <0>        -0.0103
     26 C21        -5.9605   -1.6278   -1.2219 C.ar      1 <0>        -0.0554
     27 C22        -7.2541   -0.3384    0.3598 C.ar      1 <0>        -0.0554
     28 C23        -6.7784   -2.7335   -0.9895 C.ar      1 <0>        -0.0614
     29 C24        -8.0720   -1.4443    0.5922 C.ar      1 <0>        -0.0614
     30 C25        -7.8340   -2.6419   -0.0825 C.ar      1 <0>        -0.0617
     31 H1          1.3725    0.2647   -1.2668 H         1 <0>         0.0364
     32 H2          3.0806    1.4942    0.9844 H         1 <0>         0.0471
     33 H3         -0.3591   -0.0230    0.4483 H         1 <0>         0.0275
     34 H4          0.6842    0.6683    1.6895 H         1 <0>         0.0275
     35 H5         -0.3848    2.0713   -0.8112 H         1 <0>         0.0328
     36 H6          4.9217    1.7494   -0.6129 H         1 <0>         0.0329
     37 H7          3.9265    1.1378   -1.9504 H         1 <0>         0.0329
     38 H8          0.7011    4.0969    0.0115 H         1 <0>         0.0430
     39 H9          1.3943    3.2419    1.3918 H         1 <0>         0.0430
     40 H10        -1.5676    3.5247    0.8440 H         1 <0>         0.0466
     41 H11        -0.9530    2.5243    2.1713 H         1 <0>         0.0466
     42 H12         2.7764    4.7949   -0.6769 H         1 <0>         0.0391
     43 H13         4.0192    3.6880   -1.1903 H         1 <0>         0.0391
     44 H14         3.7044    3.9099    0.5502 H         1 <0>         0.0391
     45 H15         0.4301   -2.1021    0.7564 H         1 <0>         0.0621
     46 H16         6.7314   -0.6363   -0.8951 H         1 <0>         0.0812
     47 H17         3.9937   -4.5272    0.8193 H         1 <0>         0.0638
     48 H18         1.5457   -4.2354    1.1910 H         1 <0>         0.0618
     49 H19        -2.3702    0.8038    1.5788 H         1 <0>         0.1520
     50 H20         7.5420   -2.8418   -0.3863 H         1 <0>         0.0456
     51 H21         6.6578   -3.6029    0.9697 H         1 <0>         0.0456
     52 H22         6.3238   -4.1074   -0.7243 H         1 <0>         0.0456
     53 H23        -4.9437    0.7331   -1.8250 H         1 <0>         0.0749
     54 H24        -5.8935    1.6801   -0.6630 H         1 <0>         0.0749
     55 H25        -5.1396   -1.7110   -1.9288 H         1 <0>         0.0621
     56 H26        -7.4470    0.5888    0.8924 H         1 <0>         0.0621
     57 H27        -6.5928   -3.6662   -1.5142 H         1 <0>         0.0618
     58 H28        -8.8937   -1.3732    1.2988 H         1 <0>         0.0618
     59 H29        -8.4706   -3.5029    0.0987 H         1 <0>         0.0618
@<TRIPOS>BOND
     1    1   23 1
     2    1   24 1
     3    2   23 2
     4    3    7 1
     5    3   11 1
     6    3   17 1
     7    4   16 1
     8    4   19 2
     9    4   22 1
    10    5   15 1
    11    5   23 am
    12    5   49 1
    13    6    7 1
    14    6    8 1
    15    6   12 1
    16    6   31 1
    17    7   10 1
    18    7   32 1
    19    8    9 1
    20    8   33 1
    21    8   34 1
    22    9   11 1
    23    9   15 1
    24    9   35 1
    25   10   14 1
    26   10   36 1
    27   10   37 1
    28   11   38 1
    29   11   39 1
    30   12   13 1
    31   12   18 2
    32   13   14 2
    33   13   16 2
    34   14   19 1
    35   15   40 1
    36   15   41 1
    37   16   20 1
    38   17   42 1
    39   17   43 1
    40   17   44 1
    41   18   21 1
    42   18   45 1
    43   19   46 1
    44   20   21 2
    45   20   47 1
    46   21   48 1
    47   22   50 1
    48   22   51 1
    49   22   52 1
    50   24   25 1
    51   24   53 1
    52   24   54 1
    53   25   26 ar
    54   25   27 ar
    55   26   28 ar
    56   26   55 1
    57   27   29 ar
    58   27   56 1
    59   28   30 ar
    60   28   57 1
    61   29   30 ar
    62   29   58 1
    63   30   59 1
