@<TRIPOS>MOLECULE
DB13219
   38    39     0     0     0
SMALL
USER_CHARGES

@<TRIPOS>ATOM
      1 O1         -0.0054    0.5349   -1.2968 O.3       1 <0>        -0.4524
      2 O2          0.3675   -1.6223   -0.4194 O.3       1 <0>        -0.4524
      3 N1          3.1286   -0.8743    0.0488 N.3       1 <0>        -0.3018
      4 C1          2.2298   -0.1564   -0.8542 C.3       1 <0>         0.0731
      5 C2          0.7738   -0.2470   -0.3693 C.3       1 <0>         0.2557
      6 C3          3.0764   -0.2937    1.3901 C.3       1 <0>        -0.0128
      7 C4          4.4973   -0.8496   -0.4659 C.3       1 <0>        -0.0128
      8 C5         -0.6938    1.6167   -0.8176 C.ar      1 <0>         0.1250
      9 C6         -0.9185   -1.9493   -0.0845 C.ar      1 <0>         0.1250
     10 C7         -0.0035    2.6570   -0.2041 C.ar      1 <0>        -0.0198
     11 C8         -1.3964   -1.6543    1.1881 C.ar      1 <0>        -0.0198
     12 C9         -2.0778    1.6661   -0.9480 C.ar      1 <0>        -0.0198
     13 C10        -1.7369   -2.5746   -1.0198 C.ar      1 <0>        -0.0198
     14 C11        -0.7051    3.7589    0.2847 C.ar      1 <0>        -0.0583
     15 C12        -2.7069   -1.9883    1.5295 C.ar      1 <0>        -0.0583
     16 C13        -2.7793    2.7683   -0.4592 C.ar      1 <0>        -0.0583
     17 C14        -3.0475   -2.9084   -0.6782 C.ar      1 <0>        -0.0583
     18 C15        -2.0929    3.8147    0.1571 C.ar      1 <0>        -0.0615
     19 C16        -3.5324   -2.6153    0.5964 C.ar      1 <0>        -0.0615
     20 H1          2.5290    0.8931   -0.9708 H         1 <0>         0.0500
     21 H2          2.2854   -0.6082   -1.8539 H         1 <0>         0.0500
     22 H3          0.6484    0.1431    0.6459 H         1 <0>         0.1218
     23 H4          2.1431   -0.5377    1.9062 H         1 <0>         0.0391
     24 H5          3.2129    0.7939    1.3827 H         1 <0>         0.0391
     25 H6          3.8648   -0.7216    2.0216 H         1 <0>         0.0391
     26 H7          5.1630   -1.4332    0.1797 H         1 <0>         0.0391
     27 H8          4.8935    0.1698   -0.5392 H         1 <0>         0.0391
     28 H9          4.5443   -1.3104   -1.4590 H         1 <0>         0.0391
     29 H10         1.0772    2.6316   -0.1030 H         1 <0>         0.0654
     30 H11        -0.7619   -1.1779    1.9299 H         1 <0>         0.0654
     31 H12        -2.6166    0.8536   -1.4269 H         1 <0>         0.0654
     32 H13        -1.3635   -2.8037   -2.0137 H         1 <0>         0.0654
     33 H14        -0.1708    4.5743    0.7634 H         1 <0>         0.0619
     34 H15        -3.0838   -1.7624    2.5228 H         1 <0>         0.0619
     35 H16        -3.8599    2.8116   -0.5583 H         1 <0>         0.0619
     36 H17        -3.6904   -3.3964   -1.4048 H         1 <0>         0.0619
     37 H18        -2.6391    4.6729    0.5374 H         1 <0>         0.0618
     38 H19        -4.5526   -2.8757    0.8623 H         1 <0>         0.0618
@<TRIPOS>BOND
     1    1    5 1
     2    1    8 1
     3    2    5 1
     4    2    9 1
     5    3    4 1
     6    3    6 1
     7    3    7 1
     8    4    5 1
     9    4   20 1
    10    4   21 1
    11    5   22 1
    12    6   23 1
    13    6   24 1
    14    6   25 1
    15    7   26 1
    16    7   27 1
    17    7   28 1
    18    8   10 ar
    19    8   12 ar
    20    9   11 ar
    21    9   13 ar
    22   10   14 ar
    23   10   29 1
    24   11   15 ar
    25   11   30 1
    26   12   16 ar
    27   12   31 1
    28   13   17 ar
    29   13   32 1
    30   14   18 ar
    31   14   33 1
    32   15   19 ar
    33   15   34 1
    34   16   18 ar
    35   16   35 1
    36   17   19 ar
    37   17   36 1
    38   18   37 1
    39   19   38 1
