@<TRIPOS>MOLECULE
DB13997
   63    68     0     0     0
SMALL
USER_CHARGES

@<TRIPOS>ATOM
      1 S1          3.9217   -3.0743    0.4262 S.3       1 <0>        -0.1201
      2 F1          6.7360   -0.4040    0.1143 F         1 <0>        -0.2022
      3 F2          7.0048    1.2599   -2.0051 F         1 <0>        -0.2025
      4 O1          1.5400    3.8285    1.8154 O.3       1 <0>        -0.3747
      5 O2         -1.9131    2.0454   -0.7830 O.2       1 <0>        -0.2681
      6 O3         -3.4579    0.2915    0.3859 O.3       1 <0>        -0.4499
      7 O4         -3.4344   -2.0047    1.9506 O.2       1 <0>        -0.2839
      8 O5         -4.9929    0.3245   -1.3983 O.3       1 <0>        -0.3966
      9 O6         -7.1605    0.7147   -1.3111 O.3       1 <0>        -0.4370
     10 O7         -6.2022   -0.5567    0.3556 O.2       1 <0>        -0.2028
     11 N1          1.3840    0.2276    0.8068 N.pl3     1 <0>        -0.2361
     12 N2          0.2842    2.2129   -0.0802 N.am      1 <0>        -0.2720
     13 N3          0.1072   -0.2432    1.1621 N.pl3     1 <0>        -0.2595
     14 C1          1.3955    1.6854    0.7068 C.3       1 <0>         0.1313
     15 C2          1.8120   -0.4186   -0.4391 C.3       1 <0>         0.0929
     16 C3          1.3951    2.4150    2.0543 C.3       1 <0>         0.0841
     17 C4          0.4006    3.6429   -0.3431 C.3       1 <0>         0.0403
     18 C5         -1.0588    0.3105    0.6310 C.2       1 <0>         0.1687
     19 C6         -0.9567    1.5868   -0.1616 C.2       1 <0>         0.2700
     20 C7          3.2240   -0.0245   -0.8386 C.ar      1 <0>        -0.0143
     21 C8          1.4294   -1.8968   -0.4899 C.ar      1 <0>        -0.0078
     22 C9          0.4760    4.3584    1.0077 C.3       1 <0>         0.0636
     23 C10         4.3644   -0.4421   -0.1323 C.ar      1 <0>         0.0061
     24 C11         0.0347   -1.3490    1.9889 C.2       1 <0>         0.0297
     25 C12         2.2183   -3.0123   -0.1383 C.ar      1 <0>         0.0135
     26 C13        -2.2768   -0.2276    0.8647 C.2       1 <0>         0.2012
     27 C14         3.3973    0.8364   -1.9420 C.ar      1 <0>        -0.0533
     28 C15         4.2619   -1.4017    1.0131 C.3       1 <0>         0.0266
     29 C16         0.0938   -2.1409   -0.9105 C.ar      1 <0>        -0.0554
     30 C17        -1.1011   -1.9793    2.3051 C.2       1 <0>         0.0067
     31 C18        -2.3620   -1.4539    1.7235 C.2       1 <0>         0.2241
     32 C19         5.6368   -0.0005   -0.5406 C.ar      1 <0>         0.1627
     33 C20         1.6548   -4.3067   -0.2524 C.ar      1 <0>        -0.0480
     34 C21         4.6637    1.2684   -2.3359 C.ar      1 <0>        -0.0232
     35 C22        -0.4414   -3.4235   -1.0073 C.ar      1 <0>        -0.0614
     36 C23         5.7852    0.8508   -1.6330 C.ar      1 <0>         0.1587
     37 C24         0.3445   -4.5118   -0.6797 C.ar      1 <0>        -0.0607
     38 C25        -3.7783   -0.2560   -0.8839 C.3       1 <0>         0.2395
     39 C26        -6.1262    0.0935   -0.6782 C.2       1 <0>         0.5126
     40 C27        -8.4405    0.5760   -0.6856 C.3       1 <0>         0.0851
     41 H1          2.3092    2.0297    0.2112 H         1 <0>         0.0748
     42 H2          1.2001    0.0111   -1.2483 H         1 <0>         0.0616
     43 H3          0.4777    2.2455    2.6306 H         1 <0>         0.0595
     44 H4          2.2456    2.0979    2.6667 H         1 <0>         0.0595
     45 H5         -0.4498    4.0099   -0.9251 H         1 <0>         0.0488
     46 H6          1.3184    3.8018   -0.9198 H         1 <0>         0.0488
     47 H7          0.6690    5.4250    0.8581 H         1 <0>         0.0575
     48 H8         -0.4651    4.2604    1.5619 H         1 <0>         0.0575
     49 H9          0.9824   -1.6863    2.3971 H         1 <0>         0.0829
     50 H10         2.5369    1.1885   -2.5075 H         1 <0>         0.0622
     51 H11         5.2036   -1.4356    1.5721 H         1 <0>         0.0429
     52 H12         3.5091   -1.0851    1.7409 H         1 <0>         0.0429
     53 H13        -0.5339   -1.3303   -1.2727 H         1 <0>         0.0621
     54 H14        -1.1320   -2.8433    2.9556 H         1 <0>         0.0672
     55 H15         2.2396   -5.1919   -0.0018 H         1 <0>         0.0629
     56 H16         4.7706    1.9322   -3.1885 H         1 <0>         0.0647
     57 H17        -1.4591   -3.5654   -1.3573 H         1 <0>         0.0618
     58 H18        -0.0534   -5.5189   -0.7556 H         1 <0>         0.0618
     59 H19        -3.9127   -1.3441   -0.8229 H         1 <0>         0.1168
     60 H20        -2.9950   -0.0527   -1.6220 H         1 <0>         0.1168
     61 H21        -9.1744    1.1167   -1.2892 H         1 <0>         0.0662
     62 H22        -8.4209    1.0124    0.3177 H         1 <0>         0.0662
     63 H23        -8.7291   -0.4786   -0.6432 H         1 <0>         0.0662
@<TRIPOS>BOND
     1    1   25 1
     2    1   28 1
     3    2   32 1
     4    3   36 1
     5    4   16 1
     6    4   22 1
     7    5   19 2
     8    6   26 1
     9    6   38 1
    10    7   31 2
    11    8   38 1
    12    8   39 1
    13    9   39 1
    14    9   40 1
    15   10   39 2
    16   11   13 1
    17   11   14 1
    18   11   15 1
    19   12   14 1
    20   12   17 1
    21   12   19 am
    22   13   18 1
    23   13   24 2
    24   14   16 1
    25   14   41 1
    26   15   20 1
    27   15   21 1
    28   15   42 1
    29   16   43 1
    30   16   44 1
    31   17   22 1
    32   17   45 1
    33   17   46 1
    34   18   19 1
    35   18   26 2
    36   20   23 ar
    37   20   27 ar
    38   21   25 ar
    39   21   29 ar
    40   22   47 1
    41   22   48 1
    42   23   28 1
    43   23   32 ar
    44   24   30 1
    45   24   49 1
    46   25   33 ar
    47   26   31 1
    48   27   34 ar
    49   27   50 1
    50   28   51 1
    51   28   52 1
    52   29   35 ar
    53   29   53 1
    54   30   31 1
    55   30   54 1
    56   32   36 ar
    57   33   37 ar
    58   33   55 1
    59   34   36 ar
    60   34   56 1
    61   35   37 ar
    62   35   57 1
    63   37   58 1
    64   38   59 1
    65   38   60 1
    66   40   61 1
    67   40   62 1
    68   40   63 1
