@<TRIPOS>MOLECULE
DB13222
   21    22     0     0     0
SMALL
USER_CHARGES

@<TRIPOS>ATOM
      1 Br1         3.9127   -1.5472    0.0006 Br        1 <0>        -0.0464
      2 O1          1.2050   -3.0398    0.0005 O.3       1 <0>        -0.5036
      3 N1         -1.3159   -2.0076    0.0002 N.ar      1 <0>        -0.2513
      4 C1         -0.4222    0.2304   -0.0007 C.ar      1 <0>         0.0069
      5 C2          0.7015    1.0741   -0.0011 C.ar      1 <0>        -0.0400
      6 C3         -0.2609   -1.1710   -0.0003 C.ar      1 <0>         0.1136
      7 C4          1.0344   -1.6811   -0.0002 C.ar      1 <0>         0.1566
      8 C5          1.9856    0.5370   -0.0011 C.ar      1 <0>        -0.0406
      9 C6         -1.7260    0.7445   -0.0007 C.ar      1 <0>        -0.0508
     10 C7          2.1518   -0.8424   -0.0008 C.ar      1 <0>         0.0616
     11 C8          0.5753    2.5659    0.0008 C.3       1 <0>        -0.0390
     12 C9         -2.8151   -0.1151   -0.0001 C.ar      1 <0>        -0.0430
     13 C10        -2.5577   -1.4711    0.0003 C.ar      1 <0>         0.0284
     14 H1          2.8539    1.1916   -0.0009 H         1 <0>         0.0633
     15 H2         -1.9243    1.8128   -0.0010 H         1 <0>         0.0625
     16 H3          1.5530    3.0606    0.0000 H         1 <0>         0.0278
     17 H4          0.0436    2.9082   -0.8934 H         1 <0>         0.0278
     18 H5          0.0458    2.9060    0.8968 H         1 <0>         0.0278
     19 H6         -3.8300    0.2649   -0.0001 H         1 <0>         0.0633
     20 H7         -3.3695   -2.1911    0.0007 H         1 <0>         0.0830
     21 H8          2.1591   -3.2296    0.0005 H         1 <0>         0.2923
@<TRIPOS>BOND
     1    1   10 1
     2    2    7 1
     3    2   21 1
     4    3    6 ar
     5    3   13 ar
     6    4    5 ar
     7    4    6 ar
     8    4    9 ar
     9    5    8 ar
    10    5   11 1
    11    6    7 ar
    12    7   10 ar
    13    8   10 ar
    14    8   14 1
    15    9   12 ar
    16    9   15 1
    17   11   16 1
    18   11   17 1
    19   11   18 1
    20   12   13 ar
    21   12   19 1
    22   13   20 1
