@<TRIPOS>MOLECULE
DB13253
   30    30     0     0     0
SMALL
USER_CHARGES

@<TRIPOS>ATOM
      1 O1         -2.3830    1.2291    0.2720 O.3       1 <0>        -0.3920
      2 O2         -0.7235    1.4843    2.0269 O.2       1 <0>        -0.2742
      3 O3          0.5711   -0.5484   -2.0033 O.2       1 <0>        -0.2742
      4 O4          2.2946    3.5205   -0.7663 O.2       1 <0>        -0.2520
      5 N1          0.8588    2.4530    0.6775 N.am      1 <0>        -0.2390
      6 N2          1.5049    1.4379   -1.3360 N.am      1 <0>        -0.2390
      7 C1          0.2895    0.0937    0.3181 C.3       1 <0>         0.1291
      8 C2         -0.9997   -0.7404    0.3246 C.3       1 <0>        -0.0044
      9 C3          1.3967   -0.6751    1.0613 C.3       1 <0>        -0.0125
     10 C4         -2.1462   -0.0179   -0.3753 C.3       1 <0>         0.0539
     11 C5          0.0593    1.3942    1.0814 C.2       1 <0>         0.2358
     12 C6          0.7657    0.2848   -1.1185 C.2       1 <0>         0.2358
     13 C7         -3.4210   -0.8493   -0.3229 C.3       1 <0>        -0.0389
     14 C8          1.7415   -1.9355    0.3400 C.2       1 <0>        -0.0897
     15 C9          1.6142    2.5321   -0.4862 C.2       1 <0>         0.3122
     16 C10         2.9571   -2.1997   -0.1521 C.2       1 <0>        -0.1026
     17 H1         -1.2899   -0.9568    1.3622 H         1 <0>         0.0305
     18 H2         -0.8683   -1.7075   -0.1736 H         1 <0>         0.0305
     19 H3          1.0731   -0.9265    2.0798 H         1 <0>         0.0322
     20 H4          2.2894   -0.0458    1.1782 H         1 <0>         0.0322
     21 H5         -1.9028    0.1901   -1.4222 H         1 <0>         0.0591
     22 H6          0.8280    3.2904    1.2524 H         1 <0>         0.1591
     23 H7          1.9507    1.5267   -2.2449 H         1 <0>         0.1591
     24 H8         -3.7373   -1.0192    0.7123 H         1 <0>         0.0254
     25 H9         -4.2429   -0.3208   -0.8181 H         1 <0>         0.0254
     26 H10        -3.2863   -1.8178   -0.8139 H         1 <0>         0.0254
     27 H11         0.9916   -2.7177    0.2663 H         1 <0>         0.0567
     28 H12        -3.1105    1.6709   -0.1982 H         1 <0>         0.2098
     29 H13         3.1591   -3.1486   -0.6369 H         1 <0>         0.0532
     30 H14         3.7661   -1.4808   -0.0846 H         1 <0>         0.0532
@<TRIPOS>BOND
     1    1   10 1
     2    1   28 1
     3    2   11 2
     4    3   12 2
     5    4   15 2
     6    5   11 am
     7    5   15 am
     8    5   22 1
     9    6   12 am
    10    6   15 am
    11    6   23 1
    12    7    8 1
    13    7    9 1
    14    7   11 1
    15    7   12 1
    16    8   10 1
    17    8   17 1
    18    8   18 1
    19    9   14 1
    20    9   19 1
    21    9   20 1
    22   10   13 1
    23   10   21 1
    24   13   24 1
    25   13   25 1
    26   13   26 1
    27   14   16 2
    28   14   27 1
    29   16   29 1
    30   16   30 1
