@<TRIPOS>MOLECULE
DB13228
   26    27     0     0     0
SMALL
USER_CHARGES

@<TRIPOS>ATOM
      1 S1         -3.3596   -0.0551   -0.8408 S.o       1 <0>         0.0558
      2 F1          4.7054    0.6689    0.4448 F         1 <0>        -0.2054
      3 O1         -1.2971    2.2546   -0.7066 O.2       1 <0>        -0.2859
      4 O2         -3.8543   -1.4529   -0.5937 O.2       1 <0>        -0.2522
      5 N1          0.3651   -1.4245   -0.1156 N.pl3     1 <0>        -0.3483
      6 C1          1.2084   -0.2900   -0.0651 C.ar      1 <0>         0.0553
      7 C2          0.6585    0.9980   -0.2613 C.ar      1 <0>         0.0465
      8 C3         -1.6136   -0.0889   -0.5422 C.cat     1 <0>         0.1018
      9 C4         -0.7986    1.1516   -0.5195 C.2       1 <0>         0.2051
     10 C5         -0.9872   -1.2547   -0.3499 C.2       1 <0>         0.0243
     11 C6          2.5923   -0.3677    0.1736 C.ar      1 <0>        -0.0022
     12 C7          1.4584    2.1485   -0.2203 C.ar      1 <0>        -0.0462
     13 C8          0.9518   -2.7469    0.0860 C.3       1 <0>         0.0119
     14 C9          3.3902    0.7802    0.2148 C.ar      1 <0>         0.1254
     15 C10         2.8244    2.0352    0.0184 C.ar      1 <0>        -0.0256
     16 C11        -3.8181    0.9564    0.5871 C.3       1 <0>         0.0165
     17 H1         -1.5194   -2.1996   -0.3655 H         1 <0>         0.0822
     18 H2          3.0866   -1.3223    0.3337 H         1 <0>         0.0667
     19 H3          1.0346    3.1375   -0.3713 H         1 <0>         0.0626
     20 H4          1.4082   -2.8258    1.0791 H         1 <0>         0.0456
     21 H5          1.7045   -2.9626   -0.6806 H         1 <0>         0.0456
     22 H6          0.1976   -3.5400    0.0205 H         1 <0>         0.0456
     23 H7          3.4472    2.9239    0.0511 H         1 <0>         0.0646
     24 H8         -4.9046    0.9127    0.7000 H         1 <0>         0.0368
     25 H9         -3.5289    1.9965    0.4274 H         1 <0>         0.0368
     26 H10        -3.3518    0.5669    1.4957 H         1 <0>         0.0368
@<TRIPOS>BOND
     1    1    4 2
     2    1    8 1
     3    1   16 1
     4    2   14 1
     5    3    9 2
     6    5    6 1
     7    5   10 2
     8    5   13 1
     9    6    7 ar
    10    6   11 ar
    11    7    9 1
    12    7   12 ar
    13    8    9 1
    14    8   10 1
    15   10   17 1
    16   11   14 ar
    17   11   18 1
    18   12   15 ar
    19   12   19 1
    20   13   20 1
    21   13   21 1
    22   13   22 1
    23   14   15 ar
    24   15   23 1
    25   16   24 1
    26   16   25 1
    27   16   26 1
