@<TRIPOS>MOLECULE
DB13277
   34    36     0     0     0
SMALL
USER_CHARGES

@<TRIPOS>ATOM
      1 I1         -4.6961    0.3644   -2.7688 I         1 <0>        -0.0400
      2 I2         -4.0506    1.0453    3.2620 I         1 <0>        -0.0400
      3 O1          2.9614   -0.8023   -0.3646 O.3       1 <0>        -0.4590
      4 O2          0.4170    2.5834   -0.4648 O.2       1 <0>        -0.2865
      5 O3         -5.4266    0.5403    0.3782 O.3       1 <0>        -0.5047
      6 C1          1.0034    0.3033   -0.2814 C.2       1 <0>         0.0708
      7 C2          0.7353   -1.0787   -0.0966 C.ar      1 <0>         0.0313
      8 C3          2.3654    0.4164   -0.4394 C.2       1 <0>         0.1168
      9 C4          1.9711   -1.7149   -0.1559 C.ar      1 <0>         0.1359
     10 C5          3.2650    1.5579   -0.6659 C.3       1 <0>         0.0034
     11 C6          0.0756    1.3967   -0.3065 C.2       1 <0>         0.1971
     12 C7         -0.4134   -1.8613    0.1144 C.ar      1 <0>        -0.0503
     13 C8         -1.3910    1.1688   -0.1248 C.ar      1 <0>         0.0246
     14 C9          2.1494   -3.0903   -0.0195 C.ar      1 <0>        -0.0187
     15 C10         3.7797    2.1824    0.6388 C.3       1 <0>        -0.0584
     16 C11        -0.2658   -3.2480    0.2551 C.ar      1 <0>        -0.0610
     17 C12         0.9938   -3.8491    0.1888 C.ar      1 <0>        -0.0582
     18 C13        -1.9074    1.2039    1.1489 C.ar      1 <0>        -0.0342
     19 C14        -2.1627    0.9336   -1.2382 C.ar      1 <0>        -0.0342
     20 C15        -3.5308    0.7208   -1.0679 C.ar      1 <0>         0.0564
     21 C16        -3.2754    0.9913    1.3194 C.ar      1 <0>         0.0564
     22 C17        -4.0871    0.7497    0.2109 C.ar      1 <0>         0.1430
     23 H1          4.1303    1.2275   -1.2541 H         1 <0>         0.0341
     24 H2          2.7745    2.3293   -1.2687 H         1 <0>         0.0341
     25 H3         -1.4125   -1.4501    0.1744 H         1 <0>         0.0625
     26 H4          3.1294   -3.5493   -0.0720 H         1 <0>         0.0654
     27 H5          2.9509    2.5632    1.2448 H         1 <0>         0.0234
     28 H6          4.4553    3.0146    0.4184 H         1 <0>         0.0234
     29 H7          4.3254    1.4450    1.2372 H         1 <0>         0.0234
     30 H8         -1.1458   -3.8650    0.4183 H         1 <0>         0.0618
     31 H9          1.0775   -4.9272    0.3015 H         1 <0>         0.0619
     32 H10        -1.2583    1.3934    1.9995 H         1 <0>         0.0636
     33 H11        -1.7101    0.9153   -2.2261 H         1 <0>         0.0636
     34 H12        -5.8267    0.3896   -0.4955 H         1 <0>         0.2922
@<TRIPOS>BOND
     1    1   20 1
     2    2   21 1
     3    3    8 1
     4    3    9 1
     5    4   11 2
     6    5   22 1
     7    5   34 1
     8    6    7 1
     9    6    8 2
    10    6   11 1
    11    7    9 ar
    12    7   12 ar
    13    8   10 1
    14    9   14 ar
    15   10   15 1
    16   10   23 1
    17   10   24 1
    18   11   13 1
    19   12   16 ar
    20   12   25 1
    21   13   18 ar
    22   13   19 ar
    23   14   17 ar
    24   14   26 1
    25   15   27 1
    26   15   28 1
    27   15   29 1
    28   16   17 ar
    29   16   30 1
    30   17   31 1
    31   18   21 ar
    32   18   32 1
    33   19   20 ar
    34   19   33 1
    35   20   22 ar
    36   21   22 ar
