@<TRIPOS>MOLECULE
DB13501
   35    37     0     0     0
SMALL
USER_CHARGES

@<TRIPOS>ATOM
      1 O1          3.0240    0.0562    0.2357 O.3       1 <0>        -0.4635
      2 O2          5.1496   -2.8415    0.1065 O.3       1 <0>        -0.4783
      3 O3          5.5254   -0.7624    0.9567 O.2       1 <0>        -0.2472
      4 N1         -0.1301    0.3221   -0.9391 N.pl3     1 <0>        -0.2559
      5 N2          0.9915   -0.3913   -0.7440 N.2       1 <0>        -0.1320
      6 C1         -0.0719    1.6019   -0.4569 C.ar      1 <0>         0.0730
      7 C2         -1.2488   -0.2966   -1.6119 C.3       1 <0>         0.0673
      8 C3          1.1967    1.7266    0.0985 C.ar      1 <0>         0.0629
      9 C4          1.7962    0.4662   -0.1123 C.2       1 <0>         0.2422
     10 C5         -2.1711   -0.9741   -0.6344 C.ar      1 <0>        -0.0261
     11 C6         -1.0068    2.6393   -0.4611 C.ar      1 <0>        -0.0359
     12 C7          1.5733    2.9451    0.6876 C.ar      1 <0>        -0.0474
     13 C8         -0.6169    3.8463    0.1285 C.ar      1 <0>        -0.0597
     14 C9          0.6504    3.9985    0.6940 C.ar      1 <0>        -0.0609
     15 C10        -3.2234   -0.2592   -0.0784 C.ar      1 <0>        -0.0568
     16 C11        -1.9573   -2.3046   -0.3015 C.ar      1 <0>        -0.0568
     17 C12        -4.0779   -0.8869    0.8279 C.ar      1 <0>        -0.0614
     18 C13        -2.8119   -2.9326    0.6046 C.ar      1 <0>        -0.0614
     19 C14         3.4000   -1.2896   -0.0961 C.3       1 <0>         0.1874
     20 C15        -3.8721   -2.2234    1.1694 C.ar      1 <0>        -0.0617
     21 C16         4.7970   -1.5620    0.3884 C.2       1 <0>         0.3428
     22 H1         -0.8542   -1.0146   -2.3418 H         1 <0>         0.0559
     23 H2         -1.7777    0.4675   -2.1931 H         1 <0>         0.0559
     24 H3         -1.9873    2.5368   -0.9099 H         1 <0>         0.0639
     25 H4          2.5562    3.0756    1.1300 H         1 <0>         0.0626
     26 H5         -1.3130    4.6814    0.1436 H         1 <0>         0.0618
     27 H6          0.9266    4.9482    1.1449 H         1 <0>         0.0618
     28 H7         -3.4071    0.7767   -0.3427 H         1 <0>         0.0621
     29 H8         -1.1341   -2.8660   -0.7346 H         1 <0>         0.0621
     30 H9         -4.9053   -0.3359    1.2655 H         1 <0>         0.0618
     31 H10        -2.6519   -3.9733    0.8707 H         1 <0>         0.0618
     32 H11         2.7252   -1.9951    0.4024 H         1 <0>         0.0816
     33 H12         3.3861   -1.4199   -1.1842 H         1 <0>         0.0816
     34 H13        -4.5379   -2.7125    1.8744 H         1 <0>         0.0618
     35 H14         6.0586   -3.0469    0.4130 H         1 <0>         0.2952
@<TRIPOS>BOND
     1    1    9 1
     2    1   19 1
     3    2   21 1
     4    2   35 1
     5    3   21 2
     6    4    5 1
     7    4    6 2
     8    4    7 1
     9    5    9 1
    10    6    8 ar
    11    6   11 ar
    12    7   10 1
    13    7   22 1
    14    7   23 1
    15    8    9 2
    16    8   12 ar
    17   10   15 ar
    18   10   16 ar
    19   11   13 ar
    20   11   24 1
    21   12   14 ar
    22   12   25 1
    23   13   14 ar
    24   13   26 1
    25   14   27 1
    26   15   17 ar
    27   15   28 1
    28   16   18 ar
    29   16   29 1
    30   17   20 ar
    31   17   30 1
    32   18   20 ar
    33   18   31 1
    34   19   21 1
    35   19   32 1
    36   19   33 1
    37   20   34 1
