@<TRIPOS>MOLECULE
DB13970
   59    58     0     0     0
SMALL
USER_CHARGES

@<TRIPOS>ATOM
      1 N1          1.3513   -3.4071   -0.4040 N.4       1 <0>         0.2390
      2 C1          2.1726   -2.1747   -0.4231 C.3       1 <0>        -0.0306
      3 C2          0.0260   -3.1712    0.3356 C.3       1 <0>        -0.0306
      4 C3          2.4267   -1.6740    0.9938 C.3       1 <0>        -0.0125
      5 C4         -0.7258   -1.9908   -0.2680 C.3       1 <0>        -0.0125
      6 C5          1.0222   -3.8685   -1.8316 C.3       1 <0>        -0.0415
      7 C6          2.0938   -4.5496    0.3048 C.3       1 <0>        -0.0415
      8 C7          3.2664   -0.3972    1.1123 C.3       1 <0>        -0.0483
      9 C8         -2.0694   -1.6479    0.3854 C.3       1 <0>        -0.0483
     10 C9          2.6782    0.7915    0.3494 C.3       1 <0>        -0.0529
     11 C10        -2.7439   -0.4153   -0.2201 C.3       1 <0>        -0.0529
     12 C11         3.5049    2.0592    0.5766 C.3       1 <0>        -0.0531
     13 C12        -4.1197   -0.1736    0.4053 C.3       1 <0>        -0.0531
     14 C13         2.9380    3.2418   -0.2109 C.3       1 <0>        -0.0533
     15 C14        -4.7826    1.0769   -0.1748 C.3       1 <0>        -0.0533
     16 C15         3.7834    4.4993   -0.0104 C.3       1 <0>        -0.0559
     17 C16        -6.1420    1.3370    0.4741 C.3       1 <0>        -0.0559
     18 C17         3.2046    5.6858   -0.7646 C.3       1 <0>        -0.0653
     19 C18        -6.8196    2.5599   -0.1230 C.3       1 <0>        -0.0653
     20 H1          3.1280   -2.4229   -0.9034 H         1 <0>         0.0815
     21 H2          1.6947   -1.4280   -1.0628 H         1 <0>         0.0815
     22 H3         -0.5666   -4.0894    0.2355 H         1 <0>         0.0815
     23 H4          0.2220   -3.0400    1.4042 H         1 <0>         0.0815
     24 H5          1.4920   -1.4532    1.5171 H         1 <0>         0.0317
     25 H6          2.9484   -2.4319    1.5869 H         1 <0>         0.0317
     26 H7         -0.1300   -1.0755   -0.2051 H         1 <0>         0.0317
     27 H8         -0.9284   -2.1639   -1.3295 H         1 <0>         0.0317
     28 H9          0.2936   -4.6829   -1.7844 H         1 <0>         0.0778
     29 H10         1.9525   -4.2224   -2.2874 H         1 <0>         0.0778
     30 H11         0.6412   -3.0254   -2.4121 H         1 <0>         0.0778
     31 H12         3.0941   -4.6356   -0.1294 H         1 <0>         0.0778
     32 H13         1.5302   -5.4733    0.1383 H         1 <0>         0.0778
     33 H14         2.1427   -4.3509    1.3779 H         1 <0>         0.0778
     34 H15         4.2786   -0.6005    0.7413 H         1 <0>         0.0267
     35 H16         3.3649   -0.1400    2.1742 H         1 <0>         0.0267
     36 H17        -1.9135   -1.4835    1.4588 H         1 <0>         0.0267
     37 H18        -2.7366   -2.5137    0.2915 H         1 <0>         0.0267
     38 H19         1.6444    0.9629    0.6726 H         1 <0>         0.0265
     39 H20         2.6536    0.5738   -0.7240 H         1 <0>         0.0265
     40 H21        -2.8533   -0.5506   -1.3028 H         1 <0>         0.0265
     41 H22        -2.1053    0.4630   -0.0662 H         1 <0>         0.0265
     42 H23         3.5202    2.3025    1.6459 H         1 <0>         0.0265
     43 H24         4.5427    1.8791    0.2708 H         1 <0>         0.0265
     44 H25        -4.7621   -1.0454    0.2315 H         1 <0>         0.0265
     45 H26        -4.0133   -0.0616    1.4912 H         1 <0>         0.0265
     46 H27         2.9022    2.9915   -1.2783 H         1 <0>         0.0265
     47 H28         1.9072    3.4347    0.1104 H         1 <0>         0.0265
     48 H29        -4.9078    0.9559   -1.2577 H         1 <0>         0.0265
     49 H30        -4.1311    1.9455   -0.0199 H         1 <0>         0.0265
     50 H31         4.8082    4.3181   -0.3548 H         1 <0>         0.0263
     51 H32         3.8383    4.7452    1.0565 H         1 <0>         0.0263
     52 H33        -6.0175    1.4844    1.5532 H         1 <0>         0.0263
     53 H34        -6.7924    0.4650    0.3386 H         1 <0>         0.0263
     54 H35         3.1638    5.4850   -1.8400 H         1 <0>         0.0230
     55 H36         2.1913    5.9143   -0.4189 H         1 <0>         0.0230
     56 H37         3.8251    6.5737   -0.6081 H         1 <0>         0.0230
     57 H38        -6.2088    3.4568    0.0222 H         1 <0>         0.0230
     58 H39        -6.9893    2.4296   -1.1966 H         1 <0>         0.0230
     59 H40        -7.7892    2.7280    0.3561 H         1 <0>         0.0230
@<TRIPOS>BOND
     1    1    2 1
     2    1    3 1
     3    1    6 1
     4    1    7 1
     5    2    4 1
     6    2   20 1
     7    2   21 1
     8    3    5 1
     9    3   22 1
    10    3   23 1
    11    4    8 1
    12    4   24 1
    13    4   25 1
    14    5    9 1
    15    5   26 1
    16    5   27 1
    17    6   28 1
    18    6   29 1
    19    6   30 1
    20    7   31 1
    21    7   32 1
    22    7   33 1
    23    8   10 1
    24    8   34 1
    25    8   35 1
    26    9   11 1
    27    9   36 1
    28    9   37 1
    29   10   12 1
    30   10   38 1
    31   10   39 1
    32   11   13 1
    33   11   40 1
    34   11   41 1
    35   12   14 1
    36   12   42 1
    37   12   43 1
    38   13   15 1
    39   13   44 1
    40   13   45 1
    41   14   16 1
    42   14   46 1
    43   14   47 1
    44   15   17 1
    45   15   48 1
    46   15   49 1
    47   16   18 1
    48   16   50 1
    49   16   51 1
    50   17   19 1
    51   17   52 1
    52   17   53 1
    53   18   54 1
    54   18   55 1
    55   18   56 1
    56   19   57 1
    57   19   58 1
    58   19   59 1
