@<TRIPOS>MOLECULE
DB13766
   71    74     0     0     0
SMALL
USER_CHARGES

@<TRIPOS>ATOM
      1 F1          6.4529   -4.5957    3.0710 F         1 <0>        -0.2055
      2 F2          5.8839    4.6343    1.8345 F         1 <0>        -0.2055
      3 O1         -4.5319    0.9243   -1.4549 O.2       1 <0>        -0.2741
      4 N1          0.7459    0.2263   -1.6877 N.3       1 <0>        -0.2999
      5 N2         -1.8704    1.0105   -0.7396 N.3       1 <0>        -0.2916
      6 N3         -5.0601    0.2507    0.7311 N.am      1 <0>        -0.2840
      7 C1         -0.4520   -0.5526   -2.0247 C.3       1 <0>         0.0117
      8 C2          0.3992    1.6389   -1.4892 C.3       1 <0>         0.0117
      9 C3          1.7666    0.0828   -2.7237 C.3       1 <0>        -0.0010
     10 C4         -1.5233   -0.4020   -0.9391 C.3       1 <0>         0.0122
     11 C5         -0.6726    1.7905   -0.4044 C.3       1 <0>         0.0122
     12 C6          3.1543    0.3533   -2.1425 C.3       1 <0>        -0.0394
     13 C7          3.4704   -0.6164   -0.9945 C.3       1 <0>        -0.0410
     14 C8          4.9107   -0.4452   -0.4462 C.3       1 <0>         0.0093
     15 C9         -2.8899    1.1530    0.2979 C.3       1 <0>         0.0761
     16 C10         5.3269   -1.5654    0.5025 C.ar      1 <0>        -0.0398
     17 C11         5.1734    0.9237    0.1688 C.ar      1 <0>        -0.0398
     18 C12        -4.2463    0.7745   -0.2712 C.2       1 <0>         0.2313
     19 C13         4.3669   -2.2143    1.2788 C.ar      1 <0>        -0.0553
     20 C14         4.1310    1.6296    0.7697 C.ar      1 <0>        -0.0553
     21 C15         6.6674   -1.9400    0.5939 C.ar      1 <0>        -0.0553
     22 C16         6.4556    1.4714    0.1303 C.ar      1 <0>        -0.0553
     23 C17        -6.3904   -0.2165    0.6075 C.ar      1 <0>         0.0393
     24 C18         4.7472   -3.2381    2.1465 C.ar      1 <0>        -0.0262
     25 C19         4.3711    2.8830    1.3325 C.ar      1 <0>        -0.0262
     26 C20         7.0479   -2.9637    1.4616 C.ar      1 <0>        -0.0262
     27 C21         6.6956    2.7249    0.6930 C.ar      1 <0>        -0.0262
     28 C22         6.0877   -3.6127    2.2378 C.ar      1 <0>         0.1234
     29 C23         5.6534    3.4308    1.2941 C.ar      1 <0>         0.1234
     30 C24        -6.6807   -1.2742   -0.2542 C.ar      1 <0>        -0.0290
     31 C25        -7.4108    0.3804    1.3476 C.ar      1 <0>        -0.0290
     32 C26        -7.9917   -1.7350   -0.3757 C.ar      1 <0>        -0.0571
     33 C27        -8.7218   -0.0804    1.2262 C.ar      1 <0>        -0.0571
     34 C28        -5.6093   -1.9341   -1.0606 C.3       1 <0>        -0.0379
     35 C29        -7.1314    1.5153    2.2789 C.3       1 <0>        -0.0379
     36 C30        -9.0123   -1.1380    0.3645 C.ar      1 <0>        -0.0611
     37 H1         -0.1950   -1.6160   -2.1031 H         1 <0>         0.0439
     38 H2         -0.8607   -0.2412   -2.9957 H         1 <0>         0.0439
     39 H3          1.2767    2.2117   -1.1701 H         1 <0>         0.0439
     40 H4          0.0383    2.0900   -2.4237 H         1 <0>         0.0439
     41 H5          1.5753    0.7366   -3.5841 H         1 <0>         0.0427
     42 H6          1.7727   -0.9437   -3.1143 H         1 <0>         0.0427
     43 H7         -1.1621   -0.8530   -0.0047 H         1 <0>         0.0439
     44 H8         -2.4040   -0.9729   -1.2552 H         1 <0>         0.0439
     45 H9         -0.9311    2.8535   -0.3255 H         1 <0>         0.0439
     46 H10        -0.2631    1.4800    0.5666 H         1 <0>         0.0439
     47 H11         3.8934    0.2148   -2.9416 H         1 <0>         0.0278
     48 H12         3.2394    1.3969   -1.8268 H         1 <0>         0.0278
     49 H13         3.3675   -1.6402   -1.3821 H         1 <0>         0.0275
     50 H14         2.7182   -0.5206   -0.2059 H         1 <0>         0.0275
     51 H15         5.5614   -0.5306   -1.3304 H         1 <0>         0.0397
     52 H16        -2.6461    0.5680    1.1931 H         1 <0>         0.0522
     53 H17        -2.9866    2.2026    0.6052 H         1 <0>         0.0522
     54 H18         3.3171   -1.9433    1.2540 H         1 <0>         0.0621
     55 H19         3.1238    1.2355    0.8448 H         1 <0>         0.0621
     56 H20         7.4277   -1.4543   -0.0109 H         1 <0>         0.0621
     57 H21         7.2772    0.9421   -0.3436 H         1 <0>         0.0621
     58 H22        -4.8077    0.5402    1.6740 H         1 <0>         0.1549
     59 H23         4.0011   -3.7410    2.7545 H         1 <0>         0.0646
     60 H24         3.5612    3.4310    1.8049 H         1 <0>         0.0646
     61 H25         8.0911   -3.2575    1.5312 H         1 <0>         0.0646
     62 H26         7.6933    3.1529    0.6612 H         1 <0>         0.0646
     63 H27        -8.2345   -2.5564   -1.0447 H         1 <0>         0.0621
     64 H28        -9.5290    0.3724    1.7960 H         1 <0>         0.0621
     65 H29        -5.4348   -1.3904   -1.9931 H         1 <0>         0.0278
     66 H30        -4.6729   -2.0291   -0.5023 H         1 <0>         0.0278
     67 H31        -5.9008   -2.9570   -1.3275 H         1 <0>         0.0278
     68 H32        -6.5247    1.1747    3.1244 H         1 <0>         0.0278
     69 H33        -6.6082    2.3245    1.7584 H         1 <0>         0.0278
     70 H34        -8.0540    1.9427    2.6869 H         1 <0>         0.0278
     71 H35       -10.0330   -1.4966    0.2695 H         1 <0>         0.0618
@<TRIPOS>BOND
     1    1   28 1
     2    2   29 1
     3    3   18 2
     4    4    7 1
     5    4    8 1
     6    4    9 1
     7    5   10 1
     8    5   11 1
     9    5   15 1
    10    6   18 am
    11    6   23 1
    12    6   58 1
    13    7   10 1
    14    7   37 1
    15    7   38 1
    16    8   11 1
    17    8   39 1
    18    8   40 1
    19    9   12 1
    20    9   41 1
    21    9   42 1
    22   10   43 1
    23   10   44 1
    24   11   45 1
    25   11   46 1
    26   12   13 1
    27   12   47 1
    28   12   48 1
    29   13   14 1
    30   13   49 1
    31   13   50 1
    32   14   16 1
    33   14   17 1
    34   14   51 1
    35   15   18 1
    36   15   52 1
    37   15   53 1
    38   16   19 ar
    39   16   21 ar
    40   17   20 ar
    41   17   22 ar
    42   19   24 ar
    43   19   54 1
    44   20   25 ar
    45   20   55 1
    46   21   26 ar
    47   21   56 1
    48   22   27 ar
    49   22   57 1
    50   23   30 ar
    51   23   31 ar
    52   24   28 ar
    53   24   59 1
    54   25   29 ar
    55   25   60 1
    56   26   28 ar
    57   26   61 1
    58   27   29 ar
    59   27   62 1
    60   30   32 ar
    61   30   34 1
    62   31   33 ar
    63   31   35 1
    64   32   36 ar
    65   32   63 1
    66   33   36 ar
    67   33   64 1
    68   34   65 1
    69   34   66 1
    70   34   67 1
    71   35   68 1
    72   35   69 1
    73   35   70 1
    74   36   71 1
