@<TRIPOS>MOLECULE
DB13657
   38    39     0     0     0
SMALL
USER_CHARGES

@<TRIPOS>ATOM
      1 O1         -0.6251   -1.1429    0.5593 O.3       1 <0>        -0.4223
      2 O2         -3.6050    1.2698   -0.9245 O.3       1 <0>        -0.4252
      3 O3         -1.0307    0.3671   -1.1707 O.2       1 <0>        -0.2444
      4 O4          5.6271   -1.3045   -1.2855 O.2       1 <0>        -0.2758
      5 O5         -3.6117    1.9575    1.3131 O.2       1 <0>        -0.2507
      6 N1          4.7410    0.2280    0.2718 N.am      1 <0>        -0.2857
      7 C1         -2.8226   -0.8860   -0.2207 C.ar      1 <0>         0.1016
      8 C2          0.7268   -0.7965    0.4859 C.ar      1 <0>         0.1321
      9 C3          3.3910   -0.1165    0.3437 C.ar      1 <0>         0.0336
     10 C4         -3.8626   -0.0023   -0.5086 C.ar      1 <0>         0.1456
     11 C5          2.8984   -1.1708   -0.4251 C.ar      1 <0>        -0.0370
     12 C6          2.5338    0.5933    1.1847 C.ar      1 <0>        -0.0370
     13 C7          1.5486   -1.5154   -0.3532 C.ar      1 <0>        -0.0175
     14 C8          1.1841    0.2486    1.2568 C.ar      1 <0>        -0.0175
     15 C9         -3.1076   -2.1837    0.2043 C.ar      1 <0>        -0.0442
     16 C10        -1.4324   -0.4746   -0.3569 C.2       1 <0>         0.3480
     17 C11        -5.1877   -0.4161   -0.3715 C.ar      1 <0>        -0.0184
     18 C12        -4.4327   -2.5974    0.3414 C.ar      1 <0>        -0.0608
     19 C13        -5.4727   -1.7137    0.0536 C.ar      1 <0>        -0.0582
     20 C14         5.7445   -0.3634   -0.5074 C.2       1 <0>         0.2141
     21 C15         7.0806    0.3042   -0.2989 C.3       1 <0>         0.0125
     22 C16        -3.4952    2.2018    0.1195 C.2       1 <0>         0.3092
     23 C17        -3.2126    3.5651   -0.4387 C.3       1 <0>         0.0336
     24 H1          3.4993   -1.7665   -1.0981 H         1 <0>         0.0637
     25 H2          2.9038    1.4172    1.7897 H         1 <0>         0.0637
     26 H3          1.1637   -2.3364   -0.9501 H         1 <0>         0.0655
     27 H4          0.5169    0.8003    1.9115 H         1 <0>         0.0655
     28 H5         -2.3211   -2.9014    0.4222 H         1 <0>         0.0627
     29 H6         -6.0032    0.2665   -0.5947 H         1 <0>         0.0654
     30 H7         -4.6551   -3.6089    0.6690 H         1 <0>         0.0618
     31 H8         -6.5044   -2.0363    0.1594 H         1 <0>         0.0619
     32 H9          5.0224    1.0074    0.8630 H         1 <0>         0.1548
     33 H10         7.0211    1.3527   -0.6039 H         1 <0>         0.0323
     34 H11         7.8439   -0.1983   -0.8995 H         1 <0>         0.0323
     35 H12         7.3644    0.2454    0.7556 H         1 <0>         0.0323
     36 H13        -2.2698    3.5488   -0.9909 H         1 <0>         0.0342
     37 H14        -3.1246    4.2823    0.3824 H         1 <0>         0.0342
     38 H15        -4.0348    3.8757   -1.0880 H         1 <0>         0.0342
@<TRIPOS>BOND
     1    1    8 1
     2    1   16 1
     3    2   10 1
     4    2   22 1
     5    3   16 2
     6    4   20 2
     7    5   22 2
     8    6    9 1
     9    6   20 am
    10    6   32 1
    11    7   10 ar
    12    7   15 ar
    13    7   16 1
    14    8   13 ar
    15    8   14 ar
    16    9   11 ar
    17    9   12 ar
    18   10   17 ar
    19   11   13 ar
    20   11   24 1
    21   12   14 ar
    22   12   25 1
    23   13   26 1
    24   14   27 1
    25   15   18 ar
    26   15   28 1
    27   17   19 ar
    28   17   29 1
    29   18   19 ar
    30   18   30 1
    31   19   31 1
    32   20   21 1
    33   21   33 1
    34   21   34 1
    35   21   35 1
    36   22   23 1
    37   23   36 1
    38   23   37 1
    39   23   38 1
