@<TRIPOS>MOLECULE
DB13345
   86    93     0     0     0
SMALL
USER_CHARGES

@<TRIPOS>ATOM
      1 O1         -1.7301    2.2416    0.0010 O.3       1 <0>        -0.2983
      2 O2         -2.4353    0.9720    1.8501 O.3       1 <0>        -0.3481
      3 O3         -1.8796   -0.5920   -2.0795 O.2       1 <0>        -0.2704
      4 O4         -6.4576   -0.3937    0.7350 O.2       1 <0>        -0.2735
      5 O5          0.7314   -0.6386   -2.0004 O.2       1 <0>        -0.2754
      6 N1         -3.0514    0.4144   -0.3154 N.am      1 <0>        -0.2331
      7 N2         -5.2318    1.5411    0.9419 N.am      1 <0>        -0.2900
      8 N3          3.5432   -2.4993    0.5280 N.3       1 <0>        -0.3008
      9 N4          0.1026    0.7947   -0.2773 N.am      1 <0>        -0.2796
     10 N5          9.1057   -0.1942    0.6459 N.pl3     1 <0>        -0.3604
     11 C1         -4.0680    2.3544    0.6202 C.3       1 <0>         0.0987
     12 C2         -2.8093    1.5064    0.5877 C.3       1 <0>         0.2691
     13 C3         -1.0423    1.3812   -0.9173 C.3       1 <0>         0.2201
     14 C4         -4.1407    3.5078    1.6201 C.3       1 <0>        -0.0261
     15 C5         -4.2456   -0.4196   -0.2213 C.3       1 <0>         0.1113
     16 C6          4.4462   -0.1504    0.5770 C.3       1 <0>         0.0014
     17 C7          4.7484   -1.6789    0.2501 C.3       1 <0>         0.0210
     18 C8         -6.1928    2.2855    1.7408 C.3       1 <0>         0.0154
     19 C9         -2.0224    0.2725   -1.2287 C.2       1 <0>         0.2712
     20 C10        -5.6493    3.7095    1.7631 C.3       1 <0>        -0.0352
     21 C11         2.0373   -0.5915   -0.0010 C.3       1 <0>         0.0489
     22 C12         3.2315    0.3312   -0.2263 C.3       1 <0>        -0.0324
     23 C13        -5.4183    0.2374    0.5276 C.2       1 <0>         0.2371
     24 C14        -0.6523    2.1690   -2.1539 C.3       1 <0>         0.0085
     25 C15         2.4005   -2.0487   -0.2853 C.3       1 <0>         0.0100
     26 C16         6.0237   -2.2104    1.0112 C.3       1 <0>        -0.0095
     27 C17         5.6820    0.7093    0.3694 C.2       1 <0>        -0.0334
     28 C18        -3.9113   -1.7617    0.4289 C.3       1 <0>        -0.0003
     29 C19         0.8946   -0.1693   -0.8770 C.2       1 <0>         0.2198
     30 C20         6.9226    0.0818    0.5378 C.2       1 <0>         0.0064
     31 C21         7.1691   -1.2726    0.8370 C.2       1 <0>        -0.0206
     32 C22         0.3656    3.2583   -1.8087 C.3       1 <0>        -0.0580
     33 C23        -1.8843    2.7869   -2.8184 C.3       1 <0>        -0.0580
     34 C24         3.7602   -3.9297    0.2909 C.3       1 <0>        -0.0124
     35 C25         8.1269    0.7495    0.4205 C.2       1 <0>         0.0470
     36 C26         5.7201    2.0839    0.1013 C.2       1 <0>        -0.0576
     37 C27        -4.9046   -2.8238    0.0472 C.ar      1 <0>        -0.0451
     38 C28         8.5344   -1.4238    0.9024 C.2       1 <0>         0.0060
     39 C29         8.1761    2.1122    0.1313 C.2       1 <0>        -0.0378
     40 C30         6.9423    2.7645   -0.0217 C.2       1 <0>        -0.0595
     41 C31        -6.0378   -3.0145    0.8276 C.ar      1 <0>        -0.0585
     42 C32        -4.6778   -3.6011   -1.0812 C.ar      1 <0>        -0.0585
     43 C33        -6.9597   -3.9997    0.4735 C.ar      1 <0>        -0.0615
     44 C34        -5.5998   -4.5861   -1.4353 C.ar      1 <0>        -0.0615
     45 C35        -6.7407   -4.7853   -0.6578 C.ar      1 <0>        -0.0617
     46 H1         -4.2551    2.7635   -0.3839 H         1 <0>         0.0572
     47 H2         -3.6286    4.4051    1.2611 H         1 <0>         0.0286
     48 H3         -3.7251    3.2428    2.5970 H         1 <0>         0.0286
     49 H4         -4.5769   -0.5769   -1.2563 H         1 <0>         0.0602
     50 H5          4.1988   -0.0783    1.6467 H         1 <0>         0.0364
     51 H6          4.9782   -1.7444   -0.8259 H         1 <0>         0.0471
     52 H7         -7.1942    2.2134    1.3065 H         1 <0>         0.0465
     53 H8         -6.2081    1.8425    2.7423 H         1 <0>         0.0465
     54 H9         -6.0309    4.2703    0.9012 H         1 <0>         0.0281
     55 H10        -5.9244    4.2508    2.6724 H         1 <0>         0.0281
     56 H11         1.7243   -0.5185    1.0502 H         1 <0>         0.0407
     57 H12         3.4792    0.3780   -1.2958 H         1 <0>         0.0279
     58 H13         2.9551    1.3508    0.0686 H         1 <0>         0.0279
     59 H14        -0.1889    1.5124   -2.9005 H         1 <0>         0.0345
     60 H15         1.5212   -2.6674   -0.0603 H         1 <0>         0.0434
     61 H16         2.6204   -2.1936   -1.3524 H         1 <0>         0.0434
     62 H17         0.3566    1.1522    0.6387 H         1 <0>         0.1519
     63 H18         6.3171   -3.1938    0.6273 H         1 <0>         0.0329
     64 H19         5.8038   -2.3126    2.0811 H         1 <0>         0.0329
     65 H20        -2.9091   -2.1016    0.1350 H         1 <0>         0.0336
     66 H21        -3.8689   -1.6655    1.5224 H         1 <0>         0.0336
     67 H22        -2.4837    1.6765    2.5141 H         1 <0>         0.2145
     68 H23         1.2983    2.8369   -1.4214 H         1 <0>         0.0234
     69 H24         0.6233    3.8366   -2.7031 H         1 <0>         0.0234
     70 H25        -0.0271    3.9605   -1.0655 H         1 <0>         0.0234
     71 H26        -2.6078    2.0263   -3.1276 H         1 <0>         0.0234
     72 H27        -1.5925    3.3359   -3.7211 H         1 <0>         0.0234
     73 H28        -2.3935    3.4966   -2.1579 H         1 <0>         0.0234
     74 H29         4.4658   -4.3501    1.0140 H         1 <0>         0.0391
     75 H30         4.1276   -4.1285   -0.7222 H         1 <0>         0.0391
     76 H31         2.8300   -4.4924    0.4329 H         1 <0>         0.0391
     77 H32         4.8010    2.6520   -0.0125 H         1 <0>         0.0621
     78 H33         9.1573   -2.2838    1.1035 H         1 <0>         0.0810
     79 H34        10.0997   -0.0131    0.6296 H         1 <0>         0.1653
     80 H35         9.1142    2.6469    0.0379 H         1 <0>         0.0638
     81 H36         6.9334    3.8311   -0.2365 H         1 <0>         0.0618
     82 H37        -6.1938   -2.4687    1.7532 H         1 <0>         0.0620
     83 H38        -3.7936   -3.4525   -1.6949 H         1 <0>         0.0620
     84 H39        -7.8393   -4.1667    1.0884 H         1 <0>         0.0618
     85 H40        -5.4292   -5.1982   -2.3161 H         1 <0>         0.0618
     86 H41        -7.4565   -5.5550   -0.9314 H         1 <0>         0.0618
@<TRIPOS>BOND
     1    1   12 1
     2    1   13 1
     3    2   12 1
     4    2   67 1
     5    3   19 2
     6    4   23 2
     7    5   29 2
     8    6   12 1
     9    6   15 1
    10    6   19 am
    11    7   11 1
    12    7   18 1
    13    7   23 am
    14    8   17 1
    15    8   25 1
    16    8   34 1
    17    9   13 1
    18    9   29 am
    19    9   62 1
    20   10   35 1
    21   10   38 2
    22   10   79 1
    23   11   12 1
    24   11   14 1
    25   11   46 1
    26   13   19 1
    27   13   24 1
    28   14   20 1
    29   14   47 1
    30   14   48 1
    31   15   23 1
    32   15   28 1
    33   15   49 1
    34   16   17 1
    35   16   22 1
    36   16   27 1
    37   16   50 1
    38   17   26 1
    39   17   51 1
    40   18   20 1
    41   18   52 1
    42   18   53 1
    43   20   54 1
    44   20   55 1
    45   21   22 1
    46   21   25 1
    47   21   29 1
    48   21   56 1
    49   22   57 1
    50   22   58 1
    51   24   32 1
    52   24   33 1
    53   24   59 1
    54   25   60 1
    55   25   61 1
    56   26   31 1
    57   26   63 1
    58   26   64 1
    59   27   30 1
    60   27   36 2
    61   28   37 1
    62   28   65 1
    63   28   66 1
    64   30   31 2
    65   30   35 2
    66   31   38 1
    67   32   68 1
    68   32   69 1
    69   32   70 1
    70   33   71 1
    71   33   72 1
    72   33   73 1
    73   34   74 1
    74   34   75 1
    75   34   76 1
    76   35   39 1
    77   36   40 1
    78   36   77 1
    79   37   41 ar
    80   37   42 ar
    81   38   78 1
    82   39   40 2
    83   39   80 1
    84   40   81 1
    85   41   43 ar
    86   41   82 1
    87   42   44 ar
    88   42   83 1
    89   43   45 ar
    90   43   84 1
    91   44   45 ar
    92   44   85 1
    93   45   86 1
