@<TRIPOS>MOLECULE
DB13954
   65    69     0     0     0
SMALL
USER_CHARGES

@<TRIPOS>ATOM
      1 O1         -2.0863    1.5434    0.4290 O.3       1 <0>        -0.4608
      2 O2         -3.3466    1.6667    2.3575 O.2       1 <0>        -0.2508
      3 O3          8.4075   -0.8634   -1.6539 O.3       1 <0>        -0.5068
      4 C1          0.2726    0.8352    0.3022 C.3       1 <0>         0.0081
      5 C2          1.1161    0.0477    1.3246 C.3       1 <0>        -0.0288
      6 C3          2.4203   -0.4708    0.7192 C.3       1 <0>        -0.0305
      7 C4          3.2732    0.7482    0.2536 C.3       1 <0>        -0.0125
      8 C5         -0.9551    1.1459    1.1795 C.3       1 <0>         0.1087
      9 C6          1.0791    2.0636   -0.1367 C.3       1 <0>        -0.0434
     10 C7          0.1201   -0.9450    1.9176 C.3       1 <0>        -0.0460
     11 C8          2.4616    1.6726   -0.6935 C.3       1 <0>        -0.0453
     12 C9         -1.2092   -0.1683    1.9436 C.3       1 <0>        -0.0149
     13 C10         3.2387   -1.3010    1.7099 C.3       1 <0>        -0.0454
     14 C11        -0.1515    0.0272   -0.9508 C.3       1 <0>        -0.0559
     15 C12         4.6296    0.3009   -0.2849 C.ar      1 <0>        -0.0406
     16 C13         4.4495   -1.9038    1.0038 C.3       1 <0>        -0.0270
     17 C14         5.1872   -0.9341    0.1132 C.ar      1 <0>        -0.0405
     18 C15         5.3954    1.1390   -1.1144 C.ar      1 <0>        -0.0546
     19 C16         6.4528   -1.3177   -0.3648 C.ar      1 <0>        -0.0167
     20 C17        -3.2355    1.7765    1.1442 C.2       1 <0>         0.3074
     21 C18         6.6553    0.7497   -1.5743 C.ar      1 <0>        -0.0199
     22 C19         7.1823   -0.4806   -1.2038 C.ar      1 <0>         0.1171
     23 C20        -4.3424    2.1886    0.2007 C.3       1 <0>         0.0452
     24 C21        -5.0972   -0.1806   -0.1916 C.3       1 <0>        -0.0405
     25 C22        -5.5171    1.2142    0.2373 C.3       1 <0>        -0.0401
     26 C23        -6.2518   -1.1776   -0.2093 C.3       1 <0>        -0.0502
     27 C24        -4.5930   -0.2413   -1.6299 C.3       1 <0>        -0.0502
     28 C25        -5.7392   -2.3240   -1.0755 C.3       1 <0>        -0.0528
     29 C26        -4.6629   -1.7237   -1.9818 C.3       1 <0>        -0.0528
     30 H1          1.3945    0.7270    2.1479 H         1 <0>         0.0310
     31 H2          2.1951   -1.1133   -0.1417 H         1 <0>         0.0310
     32 H3          3.5069    1.3500    1.1457 H         1 <0>         0.0352
     33 H4         -0.7069    1.9446    1.8927 H         1 <0>         0.0739
     34 H5          1.2292    2.7371    0.7173 H         1 <0>         0.0272
     35 H6          0.5282    2.6405   -0.8894 H         1 <0>         0.0272
     36 H7          0.4119   -1.2684    2.9220 H         1 <0>         0.0269
     37 H8          0.0271   -1.8414    1.2944 H         1 <0>         0.0269
     38 H9          2.3485    1.1925   -1.6729 H         1 <0>         0.0271
     39 H10         3.0090    2.6051   -0.8730 H         1 <0>         0.0271
     40 H11        -2.0093   -0.7691    1.4972 H         1 <0>         0.0301
     41 H12        -1.4973    0.0376    2.9806 H         1 <0>         0.0301
     42 H13         2.6399   -2.1122    2.1388 H         1 <0>         0.0271
     43 H14         3.5688   -0.6713    2.5461 H         1 <0>         0.0271
     44 H15        -0.7478    0.6509   -1.6273 H         1 <0>         0.0236
     45 H16         0.7017   -0.3371   -1.5288 H         1 <0>         0.0236
     46 H17        -0.7624   -0.8455   -0.6993 H         1 <0>         0.0236
     47 H18         4.1177   -2.7451    0.3820 H         1 <0>         0.0313
     48 H19         5.1327   -2.3051    1.7622 H         1 <0>         0.0313
     49 H20         5.0316    2.1169   -1.4152 H         1 <0>         0.0622
     50 H21         6.8714   -2.2795   -0.0751 H         1 <0>         0.0657
     51 H22         7.2149    1.4221   -2.2193 H         1 <0>         0.0654
     52 H23        -4.6735    3.1871    0.5091 H         1 <0>         0.0378
     53 H24        -3.9526    2.3012   -0.8169 H         1 <0>         0.0378
     54 H25        -4.3213   -0.5693    0.4807 H         1 <0>         0.0301
     55 H26        -5.9290    1.1711    1.2532 H         1 <0>         0.0273
     56 H27        -6.3150    1.5940   -0.4123 H         1 <0>         0.0273
     57 H28        -7.1429   -0.7358   -0.6720 H         1 <0>         0.0268
     58 H29        -6.5279   -1.5143    0.7946 H         1 <0>         0.0268
     59 H30        -3.5750    0.1435   -1.7423 H         1 <0>         0.0268
     60 H31        -5.2475    0.3292   -2.3005 H         1 <0>         0.0268
     61 H32        -6.5501   -2.7792   -1.6529 H         1 <0>         0.0265
     62 H33        -5.3008   -3.1098   -0.4495 H         1 <0>         0.0265
     63 H34        -3.6996   -2.2079   -1.7832 H         1 <0>         0.0265
     64 H35        -4.8924   -1.8722   -3.0417 H         1 <0>         0.0265
     65 H36         8.7683   -0.1612   -2.2222 H         1 <0>         0.2921
@<TRIPOS>BOND
     1    1    8 1
     2    1   20 1
     3    2   20 2
     4    3   22 1
     5    3   65 1
     6    4    5 1
     7    4    8 1
     8    4    9 1
     9    4   14 1
    10    5    6 1
    11    5   10 1
    12    5   30 1
    13    6    7 1
    14    6   13 1
    15    6   31 1
    16    7   11 1
    17    7   15 1
    18    7   32 1
    19    8   12 1
    20    8   33 1
    21    9   11 1
    22    9   34 1
    23    9   35 1
    24   10   12 1
    25   10   36 1
    26   10   37 1
    27   11   38 1
    28   11   39 1
    29   12   40 1
    30   12   41 1
    31   13   16 1
    32   13   42 1
    33   13   43 1
    34   14   44 1
    35   14   45 1
    36   14   46 1
    37   15   17 ar
    38   15   18 ar
    39   16   17 1
    40   16   47 1
    41   16   48 1
    42   17   19 ar
    43   18   21 ar
    44   18   49 1
    45   19   22 ar
    46   19   50 1
    47   20   23 1
    48   21   22 ar
    49   21   51 1
    50   23   25 1
    51   23   52 1
    52   23   53 1
    53   24   25 1
    54   24   26 1
    55   24   27 1
    56   24   54 1
    57   25   55 1
    58   25   56 1
    59   26   28 1
    60   26   57 1
    61   26   58 1
    62   27   29 1
    63   27   59 1
    64   27   60 1
    65   28   29 1
    66   28   61 1
    67   28   62 1
    68   29   63 1
    69   29   64 1
