@<TRIPOS>MOLECULE
DB13532
   41    43     0     0     0
SMALL
USER_CHARGES

@<TRIPOS>ATOM
      1 Cl1        -5.2278   -2.7057    0.2632 Cl        1 <0>        -0.0815
      2 S1         -0.8674    1.7138   -0.5510 S.o2      1 <0>         0.0618
      3 S2         -6.0760    0.3303   -0.4543 S.o2      1 <0>         0.0574
      4 O1         -0.7194    2.4040    0.7148 O.2       1 <0>        -0.1529
      5 O2         -1.2157    2.4194   -1.7682 O.2       1 <0>        -0.1529
      6 O3         -6.1117    1.5092   -1.3054 O.2       1 <0>        -0.1532
      7 O4         -6.8578   -0.8448   -0.8053 O.2       1 <0>        -0.1532
      8 N1          0.5222    0.7668   -0.8560 N.pl3     1 <0>        -0.1699
      9 N2         -0.3564   -1.2629    0.1529 N.pl3     1 <0>        -0.3258
     10 N3         -6.4570    0.7892    1.1458 N.pl3     1 <0>        -0.2035
     11 C1          3.2201   -0.1285   -0.3279 C.3       1 <0>        -0.0381
     12 C2          3.4932    0.5625    1.0045 C.3       1 <0>        -0.0501
     13 C3          4.5387   -0.8459   -0.5986 C.3       1 <0>        -0.0501
     14 C4          2.0264   -1.0663   -0.2825 C.3       1 <0>        -0.0169
     15 C5          4.9305    1.0580    0.8777 C.3       1 <0>        -0.0528
     16 C6          5.6001    0.1589   -0.1629 C.3       1 <0>        -0.0528
     17 C7          0.7533   -0.3287    0.1129 C.3       1 <0>         0.0915
     18 C8         -1.6770   -0.8557    0.0307 C.ar      1 <0>         0.0565
     19 C9         -2.0738    0.4518   -0.2904 C.ar      1 <0>         0.1280
     20 C10        -3.4174    0.8081   -0.4391 C.ar      1 <0>        -0.0057
     21 C11        -2.6969   -1.8089    0.1856 C.ar      1 <0>        -0.0186
     22 C12        -4.4040   -0.1574   -0.2663 C.ar      1 <0>         0.1252
     23 C13        -4.0449   -1.4657    0.0443 C.ar      1 <0>         0.0691
     24 H1          3.0815    0.6322   -1.1078 H         1 <0>         0.0302
     25 H2          2.8082    1.3923    1.2040 H         1 <0>         0.0268
     26 H3          3.4198   -0.1471    1.8378 H         1 <0>         0.0268
     27 H4          4.6216   -1.7562    0.0081 H         1 <0>         0.0268
     28 H5          4.6510   -1.1315   -1.6491 H         1 <0>         0.0268
     29 H6          1.9031   -1.5414   -1.2651 H         1 <0>         0.0299
     30 H7          2.2121   -1.8820    0.4291 H         1 <0>         0.0299
     31 H8          5.4494    1.0219    1.8410 H         1 <0>         0.0265
     32 H9          4.9478    2.0988    0.5345 H         1 <0>         0.0265
     33 H10         5.9273    0.7622   -1.0178 H         1 <0>         0.0265
     34 H11         6.4844   -0.3443    0.2409 H         1 <0>         0.0265
     35 H12         0.8656    0.1042    1.1132 H         1 <0>         0.0682
     36 H13         0.7068    0.5262   -1.8386 H         1 <0>         0.1501
     37 H14        -0.1805   -2.2061    0.4816 H         1 <0>         0.1477
     38 H15        -3.6779    1.8360   -0.6751 H         1 <0>         0.0658
     39 H16        -2.4282   -2.8381    0.4223 H         1 <0>         0.0652
     40 H17        -6.5827    1.7905    1.3380 H         1 <0>         0.1442
     41 H18        -7.0908    0.1810    1.6785 H         1 <0>         0.1442
@<TRIPOS>BOND
     1    1   23 1
     2    2    4 2
     3    2    5 2
     4    2    8 1
     5    2   19 1
     6    3    6 2
     7    3    7 2
     8    3   10 1
     9    3   22 1
    10    8   17 1
    11    8   36 1
    12    9   17 1
    13    9   18 1
    14    9   37 1
    15   10   40 1
    16   10   41 1
    17   11   12 1
    18   11   13 1
    19   11   14 1
    20   11   24 1
    21   12   15 1
    22   12   25 1
    23   12   26 1
    24   13   16 1
    25   13   27 1
    26   13   28 1
    27   14   17 1
    28   14   29 1
    29   14   30 1
    30   15   16 1
    31   15   31 1
    32   15   32 1
    33   16   33 1
    34   16   34 1
    35   17   35 1
    36   18   19 ar
    37   18   21 ar
    38   19   20 ar
    39   20   22 ar
    40   20   38 1
    41   21   23 ar
    42   21   39 1
    43   22   23 ar
