@<TRIPOS>MOLECULE
DB13801
   28    29     0     0     0
SMALL
USER_CHARGES

@<TRIPOS>ATOM
      1 Cl1         2.6623   -3.2520   -1.0449 Cl        1 <0>        -0.0820
      2 Cl2         5.0001   -2.0690    0.8535 Cl        1 <0>        -0.0820
      3 O1         -1.1297    1.5297    2.2337 O.2       1 <0>        -0.2715
      4 N1         -1.0696    0.6030    0.0615 N.am      1 <0>        -0.0898
      5 N2         -1.8214   -0.2554   -0.6958 N.2       1 <0>         0.0453
      6 N3         -3.8391   -1.4798   -0.3092 N.pl3     1 <0>        -0.2483
      7 C1          0.1381    1.2222   -0.4248 C.3       1 <0>         0.0928
      8 C2          1.3585    0.3794   -0.1119 C.ar      1 <0>        -0.0220
      9 C3          0.0094    1.4987   -1.9246 C.3       1 <0>        -0.0384
     10 C4         -1.5702    0.8271    1.3402 C.2       1 <0>         0.2651
     11 C5         -2.8138   -0.0043    1.4046 C.3       1 <0>         0.1322
     12 C6         -2.8303   -0.6279    0.0338 C.2       1 <0>         0.3171
     13 C7          1.4537   -0.8924   -0.6462 C.ar      1 <0>        -0.0369
     14 C8          2.3473    0.9030    0.7007 C.ar      1 <0>        -0.0552
     15 C9          2.5768   -1.6676   -0.3581 C.ar      1 <0>         0.0596
     16 C10         3.4705    0.1280    0.9889 C.ar      1 <0>        -0.0417
     17 C11         3.5852   -1.1574    0.4594 C.ar      1 <0>         0.0593
     18 H1          0.2332    2.1904    0.0840 H         1 <0>         0.0588
     19 H2          0.8998    2.0182   -2.2974 H         1 <0>         0.0252
     20 H3         -0.8574    2.1386   -2.1265 H         1 <0>         0.0252
     21 H4         -0.1091    0.5887   -2.5230 H         1 <0>         0.0252
     22 H5         -3.6948    0.6236    1.5526 H         1 <0>         0.0484
     23 H6         -2.7288   -0.7726    2.1758 H         1 <0>         0.0484
     24 H7          0.6719   -1.2942   -1.2845 H         1 <0>         0.0636
     25 H8          2.2691    1.9021    1.1192 H         1 <0>         0.0621
     26 H9          4.2467    0.5413    1.6281 H         1 <0>         0.0633
     27 H10        -3.8713   -1.9122   -1.2261 H         1 <0>         0.2882
     28 H11        -4.5868   -1.7092    0.3369 H         1 <0>         0.2882
@<TRIPOS>BOND
     1    1   15 1
     2    2   17 1
     3    3   10 2
     4    4    5 1
     5    4    7 1
     6    4   10 am
     7    5   12 2
     8    6   12 1
     9    6   27 1
    10    6   28 1
    11    7    8 1
    12    7    9 1
    13    7   18 1
    14    8   13 ar
    15    8   14 ar
    16    9   19 1
    17    9   20 1
    18    9   21 1
    19   10   11 1
    20   11   12 1
    21   11   22 1
    22   11   23 1
    23   13   15 ar
    24   13   24 1
    25   14   16 ar
    26   14   25 1
    27   15   17 ar
    28   16   17 ar
    29   16   26 1
