@<TRIPOS>MOLECULE
DB13288
   48    50     0     0     0
SMALL
USER_CHARGES

@<TRIPOS>ATOM
      1 O1         -0.1371    1.2579    0.3050 O.2       1 <0>        -0.2733
      2 O2         -2.6145    0.2963   -0.1243 O.3       1 <0>        -0.3693
      3 N1          0.8537   -0.7492   -0.3264 N.am      1 <0>        -0.3079
      4 N2         -6.2849    0.0988   -0.3409 N.3       1 <0>        -0.3062
      5 C1          2.2324   -0.3488   -0.1408 C.3       1 <0>         0.0354
      6 C2          3.9365    0.4883    1.5282 C.3       1 <0>        -0.0386
      7 C3          4.6425   -1.0939   -0.3037 C.3       1 <0>        -0.0386
      8 C4          4.0216    1.2853   -0.8626 C.3       1 <0>        -0.0386
      9 C5          2.4714    0.0591    1.3296 C.3       1 <0>        -0.0287
     10 C6          3.1752   -1.5189   -0.4973 C.3       1 <0>        -0.0287
     11 C7          2.5562    0.8543   -1.0551 C.3       1 <0>        -0.0287
     12 C8          4.8618   -0.6850    1.1629 C.3       1 <0>        -0.0472
     13 C9          4.2440    1.6813    0.6070 C.3       1 <0>        -0.0472
     14 C10         4.9461    0.1074   -1.2151 C.3       1 <0>        -0.0472
     15 C11        -0.2160    0.0962   -0.0850 C.2       1 <0>         0.2392
     16 C12        -1.5386   -0.5858   -0.3633 C.3       1 <0>         0.1237
     17 C13        -3.8735   -0.3202   -0.3787 C.3       1 <0>         0.0610
     18 C14        -4.9774    0.6811   -0.0780 C.3       1 <0>         0.0218
     19 C15        -7.3471    1.0763   -0.0917 C.3       1 <0>        -0.0130
     20 C16        -6.4949   -1.0961    0.4802 C.3       1 <0>        -0.0130
     21 H1          4.0995    0.7755    2.5730 H         1 <0>         0.0302
     22 H2          5.3053   -1.9283   -0.5583 H         1 <0>         0.0302
     23 H3          4.2451    2.1377   -1.5138 H         1 <0>         0.0302
     24 H4          2.2358   -0.7797    1.9980 H         1 <0>         0.0288
     25 H5          1.8249    0.8870    1.6394 H         1 <0>         0.0288
     26 H6          3.0135   -1.8365   -1.5358 H         1 <0>         0.0288
     27 H7          2.9543   -2.3920    0.1309 H         1 <0>         0.0288
     28 H8          1.9139    1.7168   -0.8476 H         1 <0>         0.0288
     29 H9          2.3818    0.5885   -2.1062 H         1 <0>         0.0288
     30 H10         4.6634   -1.5381    1.8232 H         1 <0>         0.0271
     31 H11         5.9090   -0.3983    1.3189 H         1 <0>         0.0271
     32 H12         3.6009    2.5309    0.8674 H         1 <0>         0.0271
     33 H13         5.2803    2.0096    0.7533 H         1 <0>         0.0271
     34 H14         4.8081   -0.1755   -2.2660 H         1 <0>         0.0271
     35 H15         5.9949    0.4078   -1.1013 H         1 <0>         0.0271
     36 H16         0.6669   -1.6951   -0.6478 H         1 <0>         0.1493
     37 H17        -1.5476   -0.9109   -1.4104 H         1 <0>         0.0656
     38 H18        -1.6189   -1.4616    0.2914 H         1 <0>         0.0656
     39 H19        -3.9175   -0.6384   -1.4273 H         1 <0>         0.0573
     40 H20        -3.9358   -1.2023    0.2658 H         1 <0>         0.0573
     41 H21        -4.8852    1.0314    0.9592 H         1 <0>         0.0449
     42 H22        -4.8217    1.5657   -0.7093 H         1 <0>         0.0449
     43 H23        -7.3727    1.4006    0.9549 H         1 <0>         0.0391
     44 H24        -8.3261    0.6561   -0.3482 H         1 <0>         0.0391
     45 H25        -7.2118    1.9607   -0.7242 H         1 <0>         0.0391
     46 H26        -5.8917   -1.9408    0.1339 H         1 <0>         0.0391
     47 H27        -7.5333   -1.4395    0.3942 H         1 <0>         0.0391
     48 H28        -6.2928   -0.9156    1.5424 H         1 <0>         0.0391
@<TRIPOS>BOND
     1    1   15 2
     2    2   16 1
     3    2   17 1
     4    3    5 1
     5    3   15 am
     6    3   36 1
     7    4   18 1
     8    4   19 1
     9    4   20 1
    10    5    9 1
    11    5   10 1
    12    5   11 1
    13    6    9 1
    14    6   12 1
    15    6   13 1
    16    6   21 1
    17    7   10 1
    18    7   12 1
    19    7   14 1
    20    7   22 1
    21    8   11 1
    22    8   13 1
    23    8   14 1
    24    8   23 1
    25    9   24 1
    26    9   25 1
    27   10   26 1
    28   10   27 1
    29   11   28 1
    30   11   29 1
    31   12   30 1
    32   12   31 1
    33   13   32 1
    34   13   33 1
    35   14   34 1
    36   14   35 1
    37   15   16 1
    38   16   37 1
    39   16   38 1
    40   17   18 1
    41   17   39 1
    42   17   40 1
    43   18   41 1
    44   18   42 1
    45   19   43 1
    46   19   44 1
    47   19   45 1
    48   20   46 1
    49   20   47 1
    50   20   48 1
