@<TRIPOS>MOLECULE
DB13337
   45    47     0     0     0
SMALL
USER_CHARGES

@<TRIPOS>ATOM
      1 S1         -2.3617    0.9999   -1.3576 S.3       1 <0>        -0.1273
      2 O1         -1.0207   -0.1843    2.6687 O.2       1 <0>        -0.2734
      3 O2         -4.8732   -2.3411    0.8863 O.3       1 <0>        -0.4793
      4 O3         -4.8152   -0.5965    2.3524 O.2       1 <0>        -0.2489
      5 O4          1.5702    1.4661    2.1235 O.2       1 <0>        -0.2717
      6 O5          3.7219    1.1102    0.5872 O.3       1 <0>        -0.4799
      7 N1         -2.7071    0.4923    1.1625 N.am      1 <0>        -0.2708
      8 N2          0.1263    1.6572    0.3169 N.am      1 <0>        -0.2987
      9 C1         -2.4426    1.6769    0.3406 C.3       1 <0>         0.1005
     10 C2         -3.5917   -0.3310   -0.9269 C.3       1 <0>         0.0417
     11 C3         -3.2355   -0.6991    0.5295 C.3       1 <0>         0.1379
     12 C4         -1.1118    1.8210    1.0915 C.3       1 <0>         0.1278
     13 C5         -1.5387    0.5576    1.8652 C.2       1 <0>         0.2402
     14 C6         -5.0002    0.2503   -1.1108 C.3       1 <0>        -0.0484
     15 C7         -3.3883   -1.5197   -1.8682 C.3       1 <0>        -0.0484
     16 C8         -4.3797   -1.1737    1.3671 C.2       1 <0>         0.3269
     17 C9          1.3784    1.4914    0.9098 C.2       1 <0>         0.2542
     18 C10         2.5016    1.3225   -0.1029 C.3       1 <0>         0.1726
     19 C11         2.6521    2.5660   -0.9646 C.3       1 <0>        -0.0191
     20 C12         4.3737   -0.0733    0.3476 C.ar      1 <0>         0.1216
     21 C13         3.7393   -1.2762    0.6319 C.ar      1 <0>        -0.0199
     22 C14         5.6604   -0.0539   -0.1761 C.ar      1 <0>        -0.0199
     23 C15         4.4022   -2.4791    0.3889 C.ar      1 <0>        -0.0583
     24 C16         6.3234   -1.2569   -0.4190 C.ar      1 <0>        -0.0583
     25 C17         5.6942   -2.4695   -0.1365 C.ar      1 <0>        -0.0615
     26 H1         -3.1728    2.4755    0.5006 H         1 <0>         0.0640
     27 H2         -2.4487   -1.4642    0.5732 H         1 <0>         0.0631
     28 H3         -1.0668    2.7113    1.7300 H         1 <0>         0.0622
     29 H4         -5.1984    1.0819   -0.4254 H         1 <0>         0.0244
     30 H5         -5.1520    0.6157   -2.1335 H         1 <0>         0.0244
     31 H6         -5.7694   -0.5093   -0.9322 H         1 <0>         0.0244
     32 H7         -3.5495   -1.2353   -2.9149 H         1 <0>         0.0244
     33 H8         -2.3771   -1.9351   -1.7872 H         1 <0>         0.0244
     34 H9         -4.0920   -2.3280   -1.6427 H         1 <0>         0.0244
     35 H10         0.0736    1.6339   -0.6985 H         1 <0>         0.1496
     36 H11         2.2450    0.4772   -0.7560 H         1 <0>         0.0828
     37 H12        -5.6263   -2.6691    1.4223 H         1 <0>         0.2951
     38 H13         2.8317    3.4509   -0.3432 H         1 <0>         0.0270
     39 H14         1.7664    2.7578   -1.5773 H         1 <0>         0.0270
     40 H15         3.5154    2.4677   -1.6321 H         1 <0>         0.0270
     41 H16         2.7371   -1.2976    1.0503 H         1 <0>         0.0654
     42 H17         6.1532    0.8883   -0.3977 H         1 <0>         0.0654
     43 H18         3.9134   -3.4231    0.6109 H         1 <0>         0.0619
     44 H19         7.3293   -1.2496   -0.8281 H         1 <0>         0.0619
     45 H20         6.2106   -3.4061   -0.3252 H         1 <0>         0.0618
@<TRIPOS>BOND
     1    1    9 1
     2    1   10 1
     3    2   13 2
     4    3   16 1
     5    3   37 1
     6    4   16 2
     7    5   17 2
     8    6   18 1
     9    6   20 1
    10    7    9 1
    11    7   11 1
    12    7   13 am
    13    8   12 1
    14    8   17 am
    15    8   35 1
    16    9   12 1
    17    9   26 1
    18   10   11 1
    19   10   14 1
    20   10   15 1
    21   11   16 1
    22   11   27 1
    23   12   13 1
    24   12   28 1
    25   14   29 1
    26   14   30 1
    27   14   31 1
    28   15   32 1
    29   15   33 1
    30   15   34 1
    31   17   18 1
    32   18   19 1
    33   18   36 1
    34   19   38 1
    35   19   39 1
    36   19   40 1
    37   20   21 ar
    38   20   22 ar
    39   21   23 ar
    40   21   41 1
    41   22   24 ar
    42   22   42 1
    43   23   25 ar
    44   23   43 1
    45   24   25 ar
    46   24   44 1
    47   25   45 1
