@<TRIPOS>MOLECULE
DB13853
   22    23     0     0     0
SMALL
USER_CHARGES

@<TRIPOS>ATOM
      1 S1         -2.9146   -0.0017    1.9958 S.3       1 <0>        -0.0509
      2 S2         -4.8357   -0.3048    1.3753 S.3       1 <0>        -0.0442
      3 S3         -5.7026   -0.6266   -1.4895 S.2       1 <0>        -0.0437
      4 O1          3.2807    0.7255   -0.1633 O.3       1 <0>        -0.4951
      5 C1         -0.8134    0.1845    0.2524 C.ar      1 <0>        -0.0105
      6 C2         -2.2602   -0.0071    0.3986 C.2       1 <0>         0.0277
      7 C3         -0.2915    1.4690    0.1009 C.ar      1 <0>        -0.0501
      8 C4          0.0406   -0.9185    0.2643 C.ar      1 <0>        -0.0501
      9 C5          1.9384    0.5479   -0.0268 C.ar      1 <0>         0.1201
     10 C6          1.0845    1.6507   -0.0388 C.ar      1 <0>        -0.0194
     11 C7          1.4165   -0.7366    0.1248 C.ar      1 <0>        -0.0194
     12 C8         -3.0679   -0.1918   -0.6532 C.2       1 <0>        -0.0255
     13 C9         -4.5043   -0.3771   -0.3501 C.2       1 <0>         0.0639
     14 C10         4.0963   -0.4453   -0.1423 C.3       1 <0>         0.0788
     15 H1         -0.9435    2.3392    0.0889 H         1 <0>         0.0625
     16 H2         -0.3514   -1.9262    0.3810 H         1 <0>         0.0625
     17 H3          1.4853    2.6537   -0.1567 H         1 <0>         0.0654
     18 H4          2.0220   -1.6363    0.1427 H         1 <0>         0.0654
     19 H5         -2.7172   -0.2098   -1.6784 H         1 <0>         0.0646
     20 H6          3.8699   -1.1085   -0.9841 H         1 <0>         0.0660
     21 H7          4.0339   -0.9618    0.8216 H         1 <0>         0.0660
     22 H8          5.1342   -0.1183   -0.2631 H         1 <0>         0.0660
@<TRIPOS>BOND
     1    1    2 1
     2    1    6 1
     3    2   13 1
     4    3   13 2
     5    4    9 1
     6    4   14 1
     7    5    6 1
     8    5    7 ar
     9    5    8 ar
    10    6   12 2
    11    7   10 ar
    12    7   15 1
    13    8   11 ar
    14    8   16 1
    15    9   10 ar
    16    9   11 ar
    17   10   17 1
    18   11   18 1
    19   12   13 1
    20   12   19 1
    21   14   20 1
    22   14   21 1
    23   14   22 1
