@<TRIPOS>MOLECULE
DB13953
   56    60     0     0     0
SMALL
USER_CHARGES

@<TRIPOS>ATOM
      1 O1         -6.5486    1.4488   -0.5270 O.3       1 <0>        -0.3912
      2 O2          4.2349   -0.0819    0.7490 O.3       1 <0>        -0.4223
      3 O3          4.1940    0.7860   -1.4135 O.2       1 <0>        -0.2445
      4 C1         -4.2137    0.7430   -0.1649 C.3       1 <0>        -0.0030
      5 C2         -3.6538   -0.6494    0.1892 C.3       1 <0>        -0.0298
      6 C3         -2.1403   -0.7298   -0.0076 C.3       1 <0>        -0.0305
      7 C4         -1.4583    0.3008    0.9428 C.3       1 <0>        -0.0125
      8 C5         -5.7128    0.4750    0.0678 C.3       1 <0>         0.0609
      9 C6         -3.5857    1.7664    0.7890 C.3       1 <0>        -0.0445
     10 C7         -4.5603   -1.6036   -0.5833 C.3       1 <0>        -0.0470
     11 C8         -2.0462    1.7237    0.7431 C.3       1 <0>        -0.0454
     12 C9         -5.9405   -0.9226   -0.5410 C.3       1 <0>        -0.0261
     13 C10        -1.5825   -2.1233    0.2877 C.3       1 <0>        -0.0454
     14 C11        -3.9673    1.1897   -1.6289 C.3       1 <0>        -0.0569
     15 C12         0.0629    0.2110    0.8557 C.ar      1 <0>        -0.0406
     16 C13        -0.0988   -2.1723   -0.0648 C.3       1 <0>        -0.0270
     17 C14         0.6873   -0.9778    0.4184 C.ar      1 <0>        -0.0404
     18 C15         0.8802    1.2695    1.2904 C.ar      1 <0>        -0.0546
     19 C16         2.0904   -1.0575    0.3760 C.ar      1 <0>        -0.0158
     20 C17         2.2729    1.1736    1.2518 C.ar      1 <0>        -0.0189
     21 C18         2.8786    0.0122    0.7901 C.ar      1 <0>         0.1322
     22 C19         4.8065    0.3470   -0.4517 C.2       1 <0>         0.3444
     23 C20         6.2856    0.2146   -0.4212 C.ar      1 <0>         0.0594
     24 C21         7.0492    1.1019   -1.1515 C.ar      1 <0>        -0.0478
     25 C22         6.8493   -0.7910    0.3367 C.ar      1 <0>        -0.0478
     26 C23         8.4382    0.9778   -1.1227 C.ar      1 <0>        -0.0610
     27 C24         8.2384   -0.9148    0.3655 C.ar      1 <0>        -0.0610
     28 C25         9.0327   -0.0304   -0.3644 C.ar      1 <0>        -0.0617
     29 H1         -3.8478   -0.8444    1.2575 H         1 <0>         0.0310
     30 H2         -1.8926   -0.4900   -1.0497 H         1 <0>         0.0310
     31 H3         -1.7006    0.0098    1.9768 H         1 <0>         0.0352
     32 H4         -5.9374    0.4478    1.1416 H         1 <0>         0.0599
     33 H5         -3.9058    1.5624    1.8192 H         1 <0>         0.0272
     34 H6         -3.9334    2.7797    0.5546 H         1 <0>         0.0272
     35 H7         -4.5940   -2.5978   -0.1263 H         1 <0>         0.0269
     36 H8         -4.2256   -1.7259   -1.6194 H         1 <0>         0.0269
     37 H9         -1.6881    2.1431   -0.2049 H         1 <0>         0.0271
     38 H10        -1.6843    2.3966    1.5292 H         1 <0>         0.0271
     39 H11        -6.3791   -0.8695   -1.5438 H         1 <0>         0.0290
     40 H12        -6.6381   -1.4937    0.0817 H         1 <0>         0.0290
     41 H13        -2.1080   -2.8924   -0.2892 H         1 <0>         0.0271
     42 H14        -1.7231   -2.3681    1.3484 H         1 <0>         0.0271
     43 H15        -4.3953    2.1833   -1.8058 H         1 <0>         0.0236
     44 H16        -2.9049    1.2561   -1.8779 H         1 <0>         0.0236
     45 H17        -4.4227    0.5102   -2.3561 H         1 <0>         0.0236
     46 H18         0.0074   -2.2248   -1.1559 H         1 <0>         0.0313
     47 H19         0.3295   -3.0920    0.3518 H         1 <0>         0.0313
     48 H20        -7.4683    1.1568   -0.4070 H         1 <0>         0.2098
     49 H21         0.4512    2.1895    1.6760 H         1 <0>         0.0622
     50 H22         2.5692   -1.9670    0.0183 H         1 <0>         0.0657
     51 H23         2.8769    2.0118    1.5895 H         1 <0>         0.0654
     52 H24         6.5979    1.8929   -1.7429 H         1 <0>         0.0626
     53 H25         6.2518   -1.4993    0.9025 H         1 <0>         0.0626
     54 H26         9.0569    1.6668   -1.6904 H         1 <0>         0.0618
     55 H27         8.7017   -1.7016    0.9536 H         1 <0>         0.0618
     56 H28        10.1143   -0.1273   -0.3424 H         1 <0>         0.0618
@<TRIPOS>BOND
     1    1    8 1
     2    1   48 1
     3    2   21 1
     4    2   22 1
     5    3   22 2
     6    4    5 1
     7    4    8 1
     8    4    9 1
     9    4   14 1
    10    5    6 1
    11    5   10 1
    12    5   29 1
    13    6    7 1
    14    6   13 1
    15    6   30 1
    16    7   11 1
    17    7   15 1
    18    7   31 1
    19    8   12 1
    20    8   32 1
    21    9   11 1
    22    9   33 1
    23    9   34 1
    24   10   12 1
    25   10   35 1
    26   10   36 1
    27   11   37 1
    28   11   38 1
    29   12   39 1
    30   12   40 1
    31   13   16 1
    32   13   41 1
    33   13   42 1
    34   14   43 1
    35   14   44 1
    36   14   45 1
    37   15   17 ar
    38   15   18 ar
    39   16   17 1
    40   16   46 1
    41   16   47 1
    42   17   19 ar
    43   18   20 ar
    44   18   49 1
    45   19   21 ar
    46   19   50 1
    47   20   21 ar
    48   20   51 1
    49   22   23 1
    50   23   24 ar
    51   23   25 ar
    52   24   26 ar
    53   24   52 1
    54   25   27 ar
    55   25   53 1
    56   26   28 ar
    57   26   54 1
    58   27   28 ar
    59   27   55 1
    60   28   56 1
