@<TRIPOS>MOLECULE
DB13114
   45    47     0     0     0
SMALL
USER_CHARGES

@<TRIPOS>ATOM
      1 O1         -4.3054    1.0035   -1.3003 O.3       1 <0>        -0.7759
      2 N1         -3.9758    0.8832    0.0314 N.4       1 <0>         0.2130
      3 C1          0.9193    0.3725   -0.4699 C.2       1 <0>        -0.0140
      4 C2          3.1789   -0.7965    1.3363 C.3       1 <0>        -0.0231
      5 C3          1.8013   -1.3834    1.6468 C.3       1 <0>        -0.0231
      6 C4         -2.5978    1.3826    0.2600 C.3       1 <0>        -0.0297
      7 C5          2.2517    1.0124   -0.3063 C.ar      1 <0>        -0.0144
      8 C6          0.7177   -1.0847   -0.6133 C.ar      1 <0>        -0.0144
      9 C7          3.2696    0.4768    0.5138 C.ar      1 <0>        -0.0393
     10 C8          1.1402   -1.9446    0.4140 C.ar      1 <0>        -0.0393
     11 C9         -1.5785    0.5854   -0.5407 C.3       1 <0>         0.0064
     12 C10        -0.1930    1.1289   -0.3909 C.2       1 <0>        -0.0707
     13 C11         2.5250    2.1824   -1.0492 C.ar      1 <0>        -0.0538
     14 C12         0.1163   -1.6185   -1.7633 C.ar      1 <0>        -0.0538
     15 C13        -4.9640    1.6812    0.8448 C.3       1 <0>        -0.0441
     16 C14        -4.0784   -0.5699    0.4222 C.3       1 <0>        -0.0441
     17 C15         4.5158    1.1408    0.5646 C.ar      1 <0>        -0.0580
     18 C16         0.9475   -3.3269    0.2776 C.ar      1 <0>        -0.0580
     19 C17         3.7604    2.8249   -0.9728 C.ar      1 <0>        -0.0612
     20 C18        -0.0692   -2.9952   -1.8870 C.ar      1 <0>        -0.0612
     21 C19         4.7575    2.3041   -0.1629 C.ar      1 <0>        -0.0615
     22 C20         0.3450   -3.8481   -0.8672 C.ar      1 <0>        -0.0615
     23 H1          3.7917   -1.5580    0.8348 H         1 <0>         0.0316
     24 H2          3.6547   -0.5944    2.3061 H         1 <0>         0.0316
     25 H3          1.1475   -0.6384    2.1173 H         1 <0>         0.0316
     26 H4          1.9238   -2.1828    2.3888 H         1 <0>         0.0316
     27 H5         -2.6006    2.4375   -0.0414 H         1 <0>         0.0816
     28 H6         -2.4034    1.3207    1.3375 H         1 <0>         0.0816
     29 H7         -1.8453    0.6077   -1.6036 H         1 <0>         0.0359
     30 H8         -1.6260   -0.4484   -0.1960 H         1 <0>         0.0359
     31 H9         -0.1149    2.2052   -0.2511 H         1 <0>         0.0580
     32 H10        -4.7208    1.5434    1.9014 H         1 <0>         0.0776
     33 H11        -4.8669    2.7281    0.5451 H         1 <0>         0.0776
     34 H12        -5.9654    1.3088    0.6123 H         1 <0>         0.0776
     35 H13        -3.6490   -0.6911    1.4198 H         1 <0>         0.0776
     36 H14        -5.1407   -0.8321    0.4242 H         1 <0>         0.0776
     37 H15        -3.5708   -1.1786   -0.3293 H         1 <0>         0.0776
     38 H16         1.7754    2.6065   -1.7152 H         1 <0>         0.0624
     39 H17        -0.1967   -0.9742   -2.5817 H         1 <0>         0.0624
     40 H18         5.3184    0.7414    1.1824 H         1 <0>         0.0620
     41 H19         1.2689   -4.0081    1.0614 H         1 <0>         0.0620
     42 H20         3.9424    3.7245   -1.5532 H         1 <0>         0.0618
     43 H21        -0.5328   -3.4021   -2.7810 H         1 <0>         0.0618
     44 H22         5.7246    2.7937   -0.1022 H         1 <0>         0.0618
     45 H23         0.2018   -4.9204   -0.9644 H         1 <0>         0.0618
@<TRIPOS>BOND
     1    1    2 1
     2    2    6 1
     3    2   15 1
     4    2   16 1
     5    3    7 1
     6    3    8 1
     7    3   12 2
     8    4    5 1
     9    4    9 1
    10    4   23 1
    11    4   24 1
    12    5   10 1
    13    5   25 1
    14    5   26 1
    15    6   11 1
    16    6   27 1
    17    6   28 1
    18    7    9 ar
    19    7   13 ar
    20    8   10 ar
    21    8   14 ar
    22    9   17 ar
    23   10   18 ar
    24   11   12 1
    25   11   29 1
    26   11   30 1
    27   12   31 1
    28   13   19 ar
    29   13   38 1
    30   14   20 ar
    31   14   39 1
    32   15   32 1
    33   15   33 1
    34   15   34 1
    35   16   35 1
    36   16   36 1
    37   16   37 1
    38   17   21 ar
    39   17   40 1
    40   18   22 ar
    41   18   41 1
    42   19   21 ar
    43   19   42 1
    44   20   22 ar
    45   20   43 1
    46   21   44 1
    47   22   45 1
