@<TRIPOS>MOLECULE
DB13167
   26    26     0     0     0
SMALL
USER_CHARGES

@<TRIPOS>ATOM
      1 Cl1        -0.9745   -2.3067   -1.7101 Cl        1 <0>        -0.0797
      2 O1         -2.1711    0.3465   -0.9578 O.3       1 <0>        -0.4865
      3 O2          5.2489   -0.4601    1.0374 O.3       1 <0>        -0.4804
      4 O3          3.1529   -0.6346    1.8922 O.2       1 <0>        -0.2507
      5 C1          1.9579    0.1510   -0.5604 C.ar      1 <0>        -0.0352
      6 C2          3.4409    0.0916   -0.4143 C.3       1 <0>         0.0699
      7 C3          1.2559   -0.9666   -1.0119 C.ar      1 <0>        -0.0361
      8 C4          1.2730    1.3246   -0.2453 C.ar      1 <0>        -0.0545
      9 C5         -0.8160    0.2632   -0.8331 C.ar      1 <0>         0.1392
     10 C6         -0.1312   -0.9105   -1.1484 C.ar      1 <0>         0.0828
     11 C7         -0.1140    1.3807   -0.3817 C.ar      1 <0>        -0.0182
     12 C8          3.8951   -0.3702    0.9565 C.2       1 <0>         0.3091
     13 C9         -2.9127    0.6420    0.2236 C.3       1 <0>         0.1076
     14 C10        -4.2783    0.0536    0.0925 C.2       1 <0>        -0.0542
     15 C11        -4.7823   -0.8587    0.9306 C.2       1 <0>        -0.0995
     16 H1          3.8745    1.0814   -0.6015 H         1 <0>         0.0426
     17 H2          3.8603   -0.5924   -1.1621 H         1 <0>         0.0426
     18 H3          1.7923   -1.8811   -1.2551 H         1 <0>         0.0636
     19 H4          1.8084    2.2021    0.1074 H         1 <0>         0.0622
     20 H5         -0.6314    2.3053   -0.1407 H         1 <0>         0.0655
     21 H6         -2.4023    0.2510    1.1134 H         1 <0>         0.0742
     22 H7         -3.0006    1.7295    0.3253 H         1 <0>         0.0742
     23 H8         -4.8932    0.3969   -0.7353 H         1 <0>         0.0600
     24 H9          5.5427   -0.7585    1.9247 H         1 <0>         0.2951
     25 H10        -5.7840   -1.2467    0.7818 H         1 <0>         0.0533
     26 H11        -4.2111   -1.2334    1.7725 H         1 <0>         0.0533
@<TRIPOS>BOND
     1    1   10 1
     2    2    9 1
     3    2   13 1
     4    3   12 1
     5    3   24 1
     6    4   12 2
     7    5    6 1
     8    5    7 ar
     9    5    8 ar
    10    6   12 1
    11    6   16 1
    12    6   17 1
    13    7   10 ar
    14    7   18 1
    15    8   11 ar
    16    8   19 1
    17    9   10 ar
    18    9   11 ar
    19   11   20 1
    20   13   14 1
    21   13   21 1
    22   13   22 1
    23   14   15 2
    24   14   23 1
    25   15   25 1
    26   15   26 1
