@<TRIPOS>MOLECULE
DB13218
   19    19     0     0     0
SMALL
USER_CHARGES

@<TRIPOS>ATOM
      1 O1          1.6858   -1.3535   -1.4186 O.3       1 <0>        -0.3762
      2 O2          2.3101    0.6773    1.5009 O.3       1 <0>        -0.4786
      3 O3          3.2803    0.6362   -0.5466 O.2       1 <0>        -0.2477
      4 C1         -0.0126   -0.3715   -0.0531 C.ar      1 <0>        -0.0084
      5 C2          1.3979   -0.8527   -0.1155 C.3       1 <0>         0.1766
      6 C3         -1.0368   -1.2558    0.2854 C.ar      1 <0>        -0.0556
      7 C4         -0.3073    0.9626   -0.3336 C.ar      1 <0>        -0.0556
      8 C5         -2.3559   -0.8060    0.3433 C.ar      1 <0>        -0.0614
      9 C6         -1.6265    1.4125   -0.2755 C.ar      1 <0>        -0.0614
     10 C7         -2.6507    0.5282    0.0630 C.ar      1 <0>        -0.0617
     11 C8          2.4226    0.2259    0.2243 C.2       1 <0>         0.3382
     12 H1          1.5662   -1.6759    0.5889 H         1 <0>         0.0761
     13 H2         -0.8201   -2.2980    0.5044 H         1 <0>         0.0621
     14 H3          0.4641    1.6724   -0.6181 H         1 <0>         0.0621
     15 H4         -3.1536   -1.4948    0.6061 H         1 <0>         0.0618
     16 H5         -1.8569    2.4503   -0.4980 H         1 <0>         0.0618
     17 H6         -3.6779    0.8781    0.1069 H         1 <0>         0.0618
     18 H7          1.3891   -0.6964   -2.0714 H         1 <0>         0.2110
     19 H8          2.9824    1.3612    1.7072 H         1 <0>         0.2951
@<TRIPOS>BOND
     1    1    5 1
     2    1   18 1
     3    2   11 1
     4    2   19 1
     5    3   11 2
     6    4    5 1
     7    4    6 ar
     8    4    7 ar
     9    5   11 1
    10    5   12 1
    11    6    8 ar
    12    6   13 1
    13    7    9 ar
    14    7   14 1
    15    8   10 ar
    16    8   15 1
    17    9   10 ar
    18    9   16 1
    19   10   17 1
