@<TRIPOS>MOLECULE
DB13274
   73    75     0     0     0
SMALL
USER_CHARGES

@<TRIPOS>ATOM
      1 O1         -1.2139    0.6304   -0.3912 O.3       1 <0>        -0.3413
      2 O2          1.6347    0.4522   -0.4241 O.3       1 <0>        -0.3423
      3 O3         -3.1141   -0.1609   -1.5187 O.3       1 <0>        -0.3459
      4 O4          0.3692    3.2019   -2.4359 O.3       1 <0>        -0.3865
      5 O5          3.6857   -0.4020   -1.2219 O.3       1 <0>        -0.3453
      6 O6         -1.9894   -1.8135    0.6323 O.3       1 <0>        -0.3851
      7 O7         -6.2902   -1.5925   -0.3364 O.3       1 <0>        -0.3849
      8 N1         -1.0891    4.3018   -0.0347 N.3       1 <0>        -0.3250
      9 N2          1.9547    4.1145   -0.0674 N.3       1 <0>        -0.3250
     10 N3         -5.0735   -0.0632    1.5909 N.3       1 <0>        -0.3115
     11 N4          0.2542   -1.8148   -1.4912 N.3       1 <0>        -0.3232
     12 N5          6.1359   -1.4292    1.3298 N.3       1 <0>        -0.3165
     13 C1         -0.9913    1.9680   -0.8436 C.3       1 <0>         0.1051
     14 C2          1.5692    1.8075   -0.8735 C.3       1 <0>         0.1051
     15 C3          0.2856    1.9844   -1.7017 C.3       1 <0>         0.1104
     16 C4         -0.9319    2.9059    0.3771 C.3       1 <0>         0.0355
     17 C5          1.6554    2.7437    0.3472 C.3       1 <0>         0.0355
     18 C6          0.3633    2.6895    1.1825 C.3       1 <0>        -0.0175
     19 C7         -2.6067    0.3471   -0.2843 C.3       1 <0>         0.1870
     20 C8         -4.2814   -1.1258    0.9515 C.3       1 <0>         0.0692
     21 C9         -2.8142   -0.6671    0.8497 C.3       1 <0>         0.1239
     22 C10        -4.8669   -1.4813   -0.4440 C.3       1 <0>         0.1043
     23 C11         2.2628   -0.3777   -1.3872 C.3       1 <0>         0.1750
     24 C12         1.7054   -1.8071   -1.3213 C.3       1 <0>         0.0566
     25 C13        -4.5218   -0.3919   -1.4693 C.3       1 <0>         0.0808
     26 C14         2.1059   -2.4846   -0.0082 C.3       1 <0>        -0.0307
     27 C15         4.1062   -0.9581    0.0293 C.3       1 <0>         0.0742
     28 C16         3.6193   -2.4013    0.1743 C.3       1 <0>        -0.0237
     29 C17        -4.3633   -2.8471   -0.9392 C.3       1 <0>        -0.0323
     30 C18         5.6268   -0.8884    0.0772 C.3       1 <0>         0.0220
     31 C19        -4.8944   -0.0918    3.0318 C.3       1 <0>        -0.0154
     32 C20         7.5910   -1.3714    1.3695 C.3       1 <0>        -0.0157
     33 H1         -1.8208    2.2742   -1.4983 H         1 <0>         0.0639
     34 H2          2.4475    2.0202   -1.5009 H         1 <0>         0.0639
     35 H3          0.1991    1.1770   -2.4376 H         1 <0>         0.0646
     36 H4         -1.7636    2.6784    1.0545 H         1 <0>         0.0485
     37 H5          2.4764    2.4044    0.9919 H         1 <0>         0.0485
     38 H6          0.4178    3.4121    2.0081 H         1 <0>         0.0297
     39 H7          0.3069    1.7033    1.6637 H         1 <0>         0.0297
     40 H8         -3.1619    1.2605   -0.0318 H         1 <0>         0.0937
     41 H9         -4.3547   -2.0341    1.5659 H         1 <0>         0.0517
     42 H10        -2.4429   -0.2289    1.7816 H         1 <0>         0.0661
     43 H11         2.0812   -0.0049   -2.4034 H         1 <0>         0.0926
     44 H12         2.1521   -2.3857   -2.1408 H         1 <0>         0.0508
     45 H13        -4.8492   -0.6918   -2.4715 H         1 <0>         0.0590
     46 H14        -5.0465    0.5475   -1.2533 H         1 <0>         0.0590
     47 H15        -1.0904    4.9039    0.7875 H         1 <0>         0.1185
     48 H16        -1.9943    4.4269   -0.4858 H         1 <0>         0.1185
     49 H17         2.0547    4.7079    0.7551 H         1 <0>         0.1185
     50 H18         2.8509    4.1395   -0.5516 H         1 <0>         0.1185
     51 H19         1.6082   -2.0009    0.8422 H         1 <0>         0.0283
     52 H20         1.7926   -3.5355   -0.0067 H         1 <0>         0.0283
     53 H21         3.6957   -0.3420    0.8403 H         1 <0>         0.0610
     54 H22         1.1534    3.1480   -3.0082 H         1 <0>         0.2100
     55 H23         4.0931   -3.0303   -0.5905 H         1 <0>         0.0291
     56 H24         3.8838   -2.8176    1.1523 H         1 <0>         0.0291
     57 H25        -4.5659   -3.6282   -0.1976 H         1 <0>         0.0258
     58 H26        -4.8965   -3.1471   -1.8494 H         1 <0>         0.0258
     59 H27        -3.2951   -2.8526   -1.1685 H         1 <0>         0.0258
     60 H28        -6.0613   -0.2138    1.3854 H         1 <0>         0.1221
     61 H29         6.0429   -1.4381   -0.7774 H         1 <0>         0.0449
     62 H30         5.9396    0.1563   -0.0485 H         1 <0>         0.0449
     63 H31        -2.1074   -2.4088    1.3921 H         1 <0>         0.2101
     64 H32        -6.6483   -1.7510   -1.2267 H         1 <0>         0.2103
     65 H33         0.0114   -1.4135   -2.3958 H         1 <0>         0.1186
     66 H34        -0.0867   -2.7752   -1.4992 H         1 <0>         0.1186
     67 H35        -5.5294    0.6777    3.4836 H         1 <0>         0.0388
     68 H36        -5.1952   -1.0532    3.4620 H         1 <0>         0.0388
     69 H37        -3.8689    0.1316    3.3377 H         1 <0>         0.0388
     70 H38         5.7544   -0.8990    2.1127 H         1 <0>         0.1217
     71 H39         7.9461   -1.7903    2.3162 H         1 <0>         0.0388
     72 H40         7.9542   -0.3408    1.3000 H         1 <0>         0.0388
     73 H41         8.0336   -1.9632    0.5617 H         1 <0>         0.0388
@<TRIPOS>BOND
     1    1   13 1
     2    1   19 1
     3    2   14 1
     4    2   23 1
     5    3   19 1
     6    3   25 1
     7    4   15 1
     8    4   54 1
     9    5   23 1
    10    5   27 1
    11    6   21 1
    12    6   63 1
    13    7   22 1
    14    7   64 1
    15    8   16 1
    16    8   47 1
    17    8   48 1
    18    9   17 1
    19    9   49 1
    20    9   50 1
    21   10   20 1
    22   10   31 1
    23   10   60 1
    24   11   24 1
    25   11   65 1
    26   11   66 1
    27   12   30 1
    28   12   32 1
    29   12   70 1
    30   13   15 1
    31   13   16 1
    32   13   33 1
    33   14   15 1
    34   14   17 1
    35   14   34 1
    36   15   35 1
    37   16   18 1
    38   16   36 1
    39   17   18 1
    40   17   37 1
    41   18   38 1
    42   18   39 1
    43   19   21 1
    44   19   40 1
    45   20   21 1
    46   20   22 1
    47   20   41 1
    48   21   42 1
    49   22   25 1
    50   22   29 1
    51   23   24 1
    52   23   43 1
    53   24   26 1
    54   24   44 1
    55   25   45 1
    56   25   46 1
    57   26   28 1
    58   26   51 1
    59   26   52 1
    60   27   28 1
    61   27   30 1
    62   27   53 1
    63   28   55 1
    64   28   56 1
    65   29   57 1
    66   29   58 1
    67   29   59 1
    68   30   61 1
    69   30   62 1
    70   31   67 1
    71   31   68 1
    72   31   69 1
    73   32   71 1
    74   32   72 1
    75   32   73 1
