@<TRIPOS>MOLECULE
DB13213
   60    63     0     0     0
SMALL
USER_CHARGES

@<TRIPOS>ATOM
      1 S1         -0.1568   -3.8980   -0.9950 S.3       1 <0>        -0.0857
      2 O1         -6.1851   -0.8925   -1.0422 O.2       1 <0>        -0.2921
      3 N1          2.2471    0.8989   -0.7573 N.3       1 <0>        -0.2999
      4 N2          4.9288    1.9657   -0.5856 N.3       1 <0>        -0.3029
      5 N3         -0.3275   -1.1818    0.5077 N.pl3     1 <0>        -0.2983
      6 C1          3.3057    0.4501   -1.6700 C.3       1 <0>         0.0117
      7 C2          2.4914    2.2823   -0.3309 C.3       1 <0>         0.0117
      8 C3          0.9330    0.7734   -1.3848 C.3       1 <0>         0.0004
      9 C4          4.6844    0.5830   -1.0141 C.3       1 <0>         0.0114
     10 C5          3.8695    2.4148    0.3263 C.3       1 <0>         0.0114
     11 C6         -0.2010    1.1036   -0.4095 C.3       1 <0>        -0.0240
     12 C7         -0.2259    0.2421    0.8526 C.3       1 <0>         0.0185
     13 C8          6.2422    2.0898    0.0433 C.3       1 <0>        -0.0127
     14 C9         -1.5268   -1.6199   -0.1091 C.ar      1 <0>         0.0485
     15 C10         0.7536   -2.0218    0.8764 C.ar      1 <0>         0.0479
     16 C11        -1.5819   -2.8465   -0.8002 C.ar      1 <0>         0.0341
     17 C12         0.9245   -3.2882    0.2831 C.ar      1 <0>         0.0341
     18 C13        -2.7232   -0.8738   -0.0317 C.ar      1 <0>        -0.0288
     19 C14         1.6831   -1.6503    1.8725 C.ar      1 <0>        -0.0393
     20 C15        -3.9084   -1.3114   -0.6292 C.ar      1 <0>         0.0192
     21 C16        -2.7758   -3.2795   -1.4039 C.ar      1 <0>        -0.0455
     22 C17         1.9944   -4.1202    0.6578 C.ar      1 <0>        -0.0462
     23 C18        -3.9338   -2.5140   -1.3189 C.ar      1 <0>        -0.0501
     24 C19         2.7419   -2.4831    2.2445 C.ar      1 <0>        -0.0599
     25 C20        -5.1177   -0.5104   -0.5206 C.2       1 <0>         0.1632
     26 C21         2.8996   -3.7181    1.6341 C.ar      1 <0>        -0.0606
     27 C22        -5.0889    0.8251    0.2456 C.3       1 <0>         0.0102
     28 C23        -6.4436    1.5324    0.2865 C.3       1 <0>        -0.0489
     29 C24        -6.3580    2.8587    1.0237 C.3       1 <0>        -0.0649
     30 H1          3.2851    1.0235   -2.6067 H         1 <0>         0.0439
     31 H2          3.1493   -0.6043   -1.9287 H         1 <0>         0.0439
     32 H3          1.7669    2.6058    0.4224 H         1 <0>         0.0439
     33 H4          2.4181    2.9754   -1.1798 H         1 <0>         0.0439
     34 H5          0.7947   -0.2479   -1.7599 H         1 <0>         0.0427
     35 H6          0.8533    1.4341   -2.2583 H         1 <0>         0.0427
     36 H7          5.4444    0.2814   -1.7450 H         1 <0>         0.0439
     37 H8          4.7556   -0.1091   -0.1638 H         1 <0>         0.0439
     38 H9          3.8889    1.8398    1.2624 H         1 <0>         0.0439
     39 H10         4.0281    3.4684    0.5870 H         1 <0>         0.0439
     40 H11        -1.1382    1.0046   -0.9683 H         1 <0>         0.0293
     41 H12        -0.1819    2.1607   -0.1212 H         1 <0>         0.0293
     42 H13         0.6680    0.5224    1.4090 H         1 <0>         0.0468
     43 H14        -1.0386    0.5453    1.5231 H         1 <0>         0.0468
     44 H15         6.4388    3.1314    0.3204 H         1 <0>         0.0391
     45 H16         7.0325    1.7965   -0.6567 H         1 <0>         0.0391
     46 H17         6.3316    1.4708    0.9433 H         1 <0>         0.0391
     47 H18        -2.7341    0.0562    0.5229 H         1 <0>         0.0643
     48 H19         1.6004   -0.7342    2.4473 H         1 <0>         0.0636
     49 H20        -2.8157   -4.2213   -1.9478 H         1 <0>         0.0629
     50 H21         2.1337   -5.0937    0.1918 H         1 <0>         0.0629
     51 H22        -4.8391   -2.8806   -1.7948 H         1 <0>         0.0625
     52 H23         3.4328   -2.1680    3.0212 H         1 <0>         0.0618
     53 H24         3.7199   -4.3692    1.9201 H         1 <0>         0.0618
     54 H25        -4.3607    1.4832   -0.2426 H         1 <0>         0.0345
     55 H26        -4.7702    0.6254    1.2752 H         1 <0>         0.0345
     56 H27        -7.1846    0.8901    0.7771 H         1 <0>         0.0267
     57 H28        -6.8033    1.7094   -0.7341 H         1 <0>         0.0267
     58 H29        -6.0327    2.7120    2.0586 H         1 <0>         0.0230
     59 H30        -7.3376    3.3464    1.0415 H         1 <0>         0.0230
     60 H31        -5.6507    3.5353    0.5334 H         1 <0>         0.0230
@<TRIPOS>BOND
     1    1   16 1
     2    1   17 1
     3    2   25 2
     4    3    6 1
     5    3    7 1
     6    3    8 1
     7    4    9 1
     8    4   10 1
     9    4   13 1
    10    5   12 1
    11    5   14 1
    12    5   15 1
    13    6    9 1
    14    6   30 1
    15    6   31 1
    16    7   10 1
    17    7   32 1
    18    7   33 1
    19    8   11 1
    20    8   34 1
    21    8   35 1
    22    9   36 1
    23    9   37 1
    24   10   38 1
    25   10   39 1
    26   11   12 1
    27   11   40 1
    28   11   41 1
    29   12   42 1
    30   12   43 1
    31   13   44 1
    32   13   45 1
    33   13   46 1
    34   14   16 ar
    35   14   18 ar
    36   15   17 ar
    37   15   19 ar
    38   16   21 ar
    39   17   22 ar
    40   18   20 ar
    41   18   47 1
    42   19   24 ar
    43   19   48 1
    44   20   23 ar
    45   20   25 1
    46   21   23 ar
    47   21   49 1
    48   22   26 ar
    49   22   50 1
    50   23   51 1
    51   24   26 ar
    52   24   52 1
    53   25   27 1
    54   26   53 1
    55   27   28 1
    56   27   54 1
    57   27   55 1
    58   28   29 1
    59   28   56 1
    60   28   57 1
    61   29   58 1
    62   29   59 1
    63   29   60 1
