@<TRIPOS>MOLECULE
DB13943
   70    74     0     0     0
SMALL
USER_CHARGES

@<TRIPOS>ATOM
      1 O1          2.3487   -1.4556    0.6972 O.3       1 <0>        -0.4608
      2 O2         -8.3993   -0.0393    0.3771 O.2       1 <0>        -0.2927
      3 O3          3.5310   -1.3368    2.6749 O.2       1 <0>        -0.2508
      4 C1         -0.8137    0.2818    1.2172 C.3       1 <0>        -0.0290
      5 C2          0.0305   -0.6852    0.3650 C.3       1 <0>         0.0081
      6 C3         -2.0750    0.7611    0.4922 C.3       1 <0>        -0.0337
      7 C4         -2.9554   -0.4798    0.1415 C.3       1 <0>        -0.0288
      8 C5         -4.3069   -0.0895   -0.5725 C.3       1 <0>        -0.0072
      9 C6         -0.8149   -1.9344    0.0871 C.3       1 <0>        -0.0437
     10 C7         -2.1430   -1.5753   -0.6037 C.3       1 <0>        -0.0485
     11 C8          1.2096   -0.9068    1.3315 C.3       1 <0>         0.1087
     12 C9          0.2041    1.3122    1.6998 C.3       1 <0>        -0.0460
     13 C10        -2.8741    1.7478    1.3526 C.3       1 <0>        -0.0459
     14 C11         1.4936    0.4961    1.9023 C.3       1 <0>        -0.0149
     15 C12        -5.0023    1.0247    0.2206 C.2       1 <0>        -0.0601
     16 C13         0.5362   -0.0932   -0.9753 C.3       1 <0>        -0.0559
     17 C14        -4.1445    2.1948    0.6411 C.3       1 <0>        -0.0305
     18 C15        -5.2150   -1.3528   -0.6237 C.3       1 <0>        -0.0367
     19 C16        -4.0739    0.4183   -2.0135 C.3       1 <0>        -0.0556
     20 C17        -6.6705   -1.0450   -0.9384 C.3       1 <0>         0.0107
     21 C18        -6.3094    1.0216    0.5317 C.2       1 <0>        -0.0194
     22 C19        -7.2172   -0.0397    0.0398 C.2       1 <0>         0.1561
     23 C20         3.4595   -1.6227    1.4876 C.2       1 <0>         0.3074
     24 C21         4.5808   -2.2139    0.6638 C.3       1 <0>         0.0452
     25 C22         5.7954   -1.2908    0.6059 C.3       1 <0>        -0.0401
     26 C23         5.4538    0.0391   -0.0427 C.3       1 <0>        -0.0405
     27 C24         6.6513    0.9770   -0.1587 C.3       1 <0>        -0.0502
     28 C25         5.0056   -0.0971   -1.4943 C.3       1 <0>        -0.0502
     29 C26         6.2218    1.9995   -1.2064 C.3       1 <0>        -0.0528
     30 C27         5.1537    1.3120   -2.0588 C.3       1 <0>        -0.0528
     31 H1         -1.1519   -0.2548    2.1198 H         1 <0>         0.0310
     32 H2         -1.7857    1.2815   -0.4272 H         1 <0>         0.0307
     33 H3         -3.2348   -0.9303    1.1082 H         1 <0>         0.0312
     34 H4         -1.0416   -2.4530    1.0277 H         1 <0>         0.0272
     35 H5         -0.2582   -2.6484   -0.5318 H         1 <0>         0.0272
     36 H6         -1.9352   -1.2605   -1.6310 H         1 <0>         0.0268
     37 H7         -2.7351   -2.4940   -0.6780 H         1 <0>         0.0268
     38 H8          0.9002   -1.5794    2.1440 H         1 <0>         0.0739
     39 H9         -0.1112    1.7962    2.6298 H         1 <0>         0.0269
     40 H10         0.3631    2.0988    0.9538 H         1 <0>         0.0269
     41 H11        -2.2666    2.6326    1.5761 H         1 <0>         0.0271
     42 H12        -3.1319    1.2876    2.3153 H         1 <0>         0.0271
     43 H13         2.3378    0.9906    1.4093 H         1 <0>         0.0301
     44 H14         1.7304    0.4372    2.9705 H         1 <0>         0.0301
     45 H15         1.1917    0.7714   -0.8295 H         1 <0>         0.0236
     46 H16         1.1123   -0.8408   -1.5331 H         1 <0>         0.0236
     47 H17        -0.2773    0.2325   -1.6287 H         1 <0>         0.0236
     48 H18        -3.8803    2.7796   -0.2486 H         1 <0>         0.0310
     49 H19        -4.6952    2.8752    1.3023 H         1 <0>         0.0310
     50 H20        -5.1803   -1.8675    0.3468 H         1 <0>         0.0278
     51 H21        -4.8433   -2.0680   -1.3672 H         1 <0>         0.0278
     52 H22        -3.7279   -0.3845   -2.6731 H         1 <0>         0.0238
     53 H23        -4.9956    0.8165   -2.4537 H         1 <0>         0.0238
     54 H24        -3.3308    1.2207   -2.0558 H         1 <0>         0.0238
     55 H25        -7.2580   -1.9660   -0.8553 H         1 <0>         0.0345
     56 H26        -6.7942   -0.6530   -1.9527 H         1 <0>         0.0345
     57 H27        -6.7635    1.8222    1.1060 H         1 <0>         0.0652
     58 H28         4.8557   -3.1669    1.1308 H         1 <0>         0.0378
     59 H29         4.2239   -2.4625   -0.3415 H         1 <0>         0.0378
     60 H30         6.1715   -1.1117    1.6208 H         1 <0>         0.0273
     61 H31         6.5988   -1.7940    0.0545 H         1 <0>         0.0273
     62 H32         4.6717    0.5535    0.5306 H         1 <0>         0.0301
     63 H33         7.5383    0.4369   -0.5123 H         1 <0>         0.0268
     64 H34         6.9051    1.4496    0.7952 H         1 <0>         0.0268
     65 H35         3.9764   -0.4552   -1.5919 H         1 <0>         0.0268
     66 H36         5.6582   -0.7862   -2.0443 H         1 <0>         0.0268
     67 H37         7.0728    2.3315   -1.8098 H         1 <0>         0.0265
     68 H38         5.7962    2.8865   -0.7231 H         1 <0>         0.0265
     69 H39         4.2063    1.8570   -1.9754 H         1 <0>         0.0265
     70 H40         5.4281    1.2909   -3.1183 H         1 <0>         0.0265
@<TRIPOS>BOND
     1    1   11 1
     2    1   23 1
     3    2   22 2
     4    3   23 2
     5    4    5 1
     6    4    6 1
     7    4   12 1
     8    4   31 1
     9    5    9 1
    10    5   11 1
    11    5   16 1
    12    6    7 1
    13    6   13 1
    14    6   32 1
    15    7    8 1
    16    7   10 1
    17    7   33 1
    18    8   15 1
    19    8   18 1
    20    8   19 1
    21    9   10 1
    22    9   34 1
    23    9   35 1
    24   10   36 1
    25   10   37 1
    26   11   14 1
    27   11   38 1
    28   12   14 1
    29   12   39 1
    30   12   40 1
    31   13   17 1
    32   13   41 1
    33   13   42 1
    34   14   43 1
    35   14   44 1
    36   15   17 1
    37   15   21 2
    38   16   45 1
    39   16   46 1
    40   16   47 1
    41   17   48 1
    42   17   49 1
    43   18   20 1
    44   18   50 1
    45   18   51 1
    46   19   52 1
    47   19   53 1
    48   19   54 1
    49   20   22 1
    50   20   55 1
    51   20   56 1
    52   21   22 1
    53   21   57 1
    54   23   24 1
    55   24   25 1
    56   24   58 1
    57   24   59 1
    58   25   26 1
    59   25   60 1
    60   25   61 1
    61   26   27 1
    62   26   28 1
    63   26   62 1
    64   27   29 1
    65   27   63 1
    66   27   64 1
    67   28   30 1
    68   28   65 1
    69   28   66 1
    70   29   30 1
    71   29   67 1
    72   29   68 1
    73   30   69 1
    74   30   70 1
