@<TRIPOS>MOLECULE
DB13851
   50    53     0     0     0
SMALL
USER_CHARGES

@<TRIPOS>ATOM
      1 O1          1.2458   -0.6895    1.8491 O.3       1 <0>        -0.2196
      2 O2          1.1401   -1.8444   -0.8147 O.3       1 <0>        -0.3144
      3 O3         -0.9499   -1.8046    0.2101 O.3       1 <0>        -0.3194
      4 O4          1.4589   -2.0942    1.5119 O.3       1 <0>        -0.1989
      5 O5         -2.8109   -0.4565   -0.3381 O.3       1 <0>        -0.3512
      6 C1          0.6478    0.0093    0.7247 C.3       1 <0>         0.1612
      7 C2          1.7965    0.9255    0.1918 C.3       1 <0>        -0.0010
      8 C3         -0.5129    0.8480    1.3285 C.3       1 <0>         0.0034
      9 C4          1.2816    2.0566   -0.7369 C.3       1 <0>        -0.0381
     10 C5          0.0981   -0.9878   -0.3272 C.3       1 <0>         0.1976
     11 C6         -0.9797    1.9637    0.3806 C.3       1 <0>        -0.0467
     12 C7         -1.6562   -0.0939    1.7966 C.3       1 <0>         0.0132
     13 C8          2.9534    0.1497   -0.4805 C.3       1 <0>        -0.0421
     14 C9          0.1746    2.8578   -0.0461 C.3       1 <0>        -0.0498
     15 C10         2.0760   -2.1530    0.2226 C.3       1 <0>         0.2027
     16 C11         3.2923   -1.2142    0.1286 C.3       1 <0>         0.0043
     17 C12        -2.0780   -1.0889    0.7035 C.3       1 <0>         0.1651
     18 C13         2.3927    3.0197   -1.1725 C.3       1 <0>        -0.0621
     19 C14        -2.8577    0.6563    2.3747 C.3       1 <0>        -0.0575
     20 C15         2.5105   -3.6034    0.0244 C.3       1 <0>        -0.0077
     21 C16        -3.1954   -1.3851   -1.3425 C.3       1 <0>         0.0478
     22 C17        -3.9824   -0.6474   -2.4085 C.3       1 <0>        -0.0415
     23 H1          2.2440    1.4074    1.0756 H         1 <0>         0.0334
     24 H2         -0.1329    1.3413    2.2363 H         1 <0>         0.0335
     25 H3          0.8629    1.6060   -1.6466 H         1 <0>         0.0302
     26 H4         -0.2960   -0.4606   -1.2018 H         1 <0>         0.0943
     27 H5         -1.7285    2.5926    0.8744 H         1 <0>         0.0269
     28 H6         -1.4523    1.5545   -0.5169 H         1 <0>         0.0269
     29 H7         -1.2356   -0.6934    2.6171 H         1 <0>         0.0351
     30 H8          3.8627    0.7635   -0.4535 H         1 <0>         0.0271
     31 H9          2.7250    0.0043   -1.5450 H         1 <0>         0.0271
     32 H10        -0.2076    3.6300   -0.7249 H         1 <0>         0.0268
     33 H11         0.5776    3.3800    0.8312 H         1 <0>         0.0268
     34 H12         4.0575   -1.6597   -0.5202 H         1 <0>         0.0318
     35 H13         3.7559   -1.0832    1.1138 H         1 <0>         0.0318
     36 H14        -2.7394   -1.8318    1.1672 H         1 <0>         0.0913
     37 H15         2.9122    3.4434   -0.3065 H         1 <0>         0.0233
     38 H16         3.1320    2.5195   -1.8052 H         1 <0>         0.0233
     39 H17         1.9805    3.8489   -1.7580 H         1 <0>         0.0233
     40 H18        -3.5624   -0.0482    2.8299 H         1 <0>         0.0234
     41 H19        -2.5391    1.3567    3.1537 H         1 <0>         0.0234
     42 H20        -3.4047    1.2183    1.6116 H         1 <0>         0.0234
     43 H21         1.6472   -4.2748    0.1041 H         1 <0>         0.0282
     44 H22         2.9478   -3.7599   -0.9674 H         1 <0>         0.0282
     45 H23         3.2314   -3.9111    0.7894 H         1 <0>         0.0282
     46 H24        -2.3182   -1.8449   -1.8094 H         1 <0>         0.0558
     47 H25        -3.8195   -2.1716   -0.9034 H         1 <0>         0.0558
     48 H26        -4.3020   -1.3299   -3.2010 H         1 <0>         0.0252
     49 H27        -4.8673   -0.1711   -1.9735 H         1 <0>         0.0252
     50 H28        -3.3763    0.1501   -2.8509 H         1 <0>         0.0252
@<TRIPOS>BOND
     1    1    4 1
     2    1    6 1
     3    2   10 1
     4    2   15 1
     5    3   10 1
     6    3   17 1
     7    4   15 1
     8    5   17 1
     9    5   21 1
    10    6    7 1
    11    6    8 1
    12    6   10 1
    13    7    9 1
    14    7   13 1
    15    7   23 1
    16    8   11 1
    17    8   12 1
    18    8   24 1
    19    9   14 1
    20    9   18 1
    21    9   25 1
    22   10   26 1
    23   11   14 1
    24   11   27 1
    25   11   28 1
    26   12   17 1
    27   12   19 1
    28   12   29 1
    29   13   16 1
    30   13   30 1
    31   13   31 1
    32   14   32 1
    33   14   33 1
    34   15   16 1
    35   15   20 1
    36   16   34 1
    37   16   35 1
    38   17   36 1
    39   18   37 1
    40   18   38 1
    41   18   39 1
    42   19   40 1
    43   19   41 1
    44   19   42 1
    45   20   43 1
    46   20   44 1
    47   20   45 1
    48   21   22 1
    49   21   46 1
    50   21   47 1
    51   22   48 1
    52   22   49 1
    53   22   50 1
