@<TRIPOS>MOLECULE
DB13867
   57    60     0     0     0
SMALL
USER_CHARGES

@<TRIPOS>ATOM
      1 S1          4.0487   -1.9696    0.7531 S.3       1 <0>        -0.0517
      2 F1         -1.5816   -0.0938    1.5654 F         1 <0>        -0.2377
      3 F2         -3.8757    2.9883   -0.4495 F         1 <0>        -0.2407
      4 F3          5.8854   -3.7945    0.5508 F         1 <0>        -0.2370
      5 O1          2.7683    0.3745    1.9198 O.3       1 <0>        -0.3793
      6 O2         -0.6021   -2.3069   -1.0869 O.3       1 <0>        -0.3886
      7 O3          4.9553    0.1906   -0.4672 O.2       1 <0>        -0.2820
      8 O4         -6.4008   -0.2531    2.2282 O.2       1 <0>        -0.2879
      9 C1          1.4856   -0.1652   -0.1380 C.3       1 <0>         0.0104
     10 C2          0.5296    1.0302    0.0655 C.3       1 <0>        -0.0262
     11 C3         -0.8813    0.7970   -0.4987 C.3       1 <0>         0.0029
     12 C4         -1.5215   -0.4385    0.2221 C.3       1 <0>         0.1528
     13 C5          2.7750    0.4369    0.4990 C.3       1 <0>         0.1420
     14 C6          1.3367    2.2284   -0.4329 C.3       1 <0>        -0.0436
     15 C7          0.8752   -1.3793    0.5926 C.3       1 <0>        -0.0151
     16 C8          2.8027    1.8996   -0.0416 C.3       1 <0>        -0.0063
     17 C9         -0.5854   -1.6854    0.1900 C.3       1 <0>         0.0910
     18 C10        -3.0216   -0.6769   -0.2133 C.3       1 <0>         0.0469
     19 C11        -1.7446    2.0561   -0.3103 C.3       1 <0>        -0.0117
     20 C12         1.7293   -0.5062   -1.6335 C.3       1 <0>        -0.0561
     21 C13        -3.1921    1.8397   -0.7281 C.3       1 <0>         0.1237
     22 C14        -3.7745    0.6461   -0.0129 C.2       1 <0>        -0.0198
     23 C15         3.3831    2.9302    0.9223 C.3       1 <0>        -0.0593
     24 C16         4.0297   -0.3089    0.1609 C.2       1 <0>         0.2238
     25 C17        -3.1848   -1.1032   -1.6900 C.3       1 <0>        -0.0492
     26 C18        -3.6356   -1.7927    0.6202 C.2       1 <0>        -0.0674
     27 C19        -4.8553    0.7728    0.7732 C.2       1 <0>        -0.0121
     28 C20        -4.7098   -1.6697    1.4054 C.2       1 <0>        -0.0179
     29 C21        -5.4040   -0.3750    1.5242 C.2       1 <0>         0.1788
     30 C22         5.6666   -2.5094    0.1642 C.3       1 <0>         0.1428
     31 H1          0.4050    1.1893    1.1495 H         1 <0>         0.0311
     32 H2         -0.8175    0.6023   -1.5740 H         1 <0>         0.0336
     33 H3          1.2503    2.3345   -1.5208 H         1 <0>         0.0272
     34 H4          0.9852    3.1636    0.0156 H         1 <0>         0.0272
     35 H5          0.8728   -1.2120    1.6758 H         1 <0>         0.0297
     36 H6          1.4478   -2.2884    0.3966 H         1 <0>         0.0297
     37 H7          3.3898    1.9611   -0.9673 H         1 <0>         0.0331
     38 H8         -0.9457   -2.4221    0.9187 H         1 <0>         0.0626
     39 H9         -1.3356    2.8901   -0.8935 H         1 <0>         0.0300
     40 H10        -1.7164    2.3855    0.7372 H         1 <0>         0.0300
     41 H11         2.2873    0.2745   -2.1596 H         1 <0>         0.0236
     42 H12         2.3036   -1.4329   -1.7393 H         1 <0>         0.0236
     43 H13         0.8028   -0.6468   -2.1938 H         1 <0>         0.0236
     44 H14        -3.2589    1.6966   -1.8115 H         1 <0>         0.0699
     45 H15         4.4093    2.6685    1.1995 H         1 <0>         0.0233
     46 H16         3.4026    3.9216    0.4572 H         1 <0>         0.0233
     47 H17         2.7877    3.0045    1.8382 H         1 <0>         0.0233
     48 H18        -4.2278   -0.9962   -2.0171 H         1 <0>         0.0242
     49 H19        -2.5747   -0.5030   -2.3716 H         1 <0>         0.0242
     50 H20        -2.9259   -2.1534   -1.8581 H         1 <0>         0.0242
     51 H21        -3.1804   -2.7784    0.5542 H         1 <0>         0.0583
     52 H22         2.7723   -0.5565    2.1982 H         1 <0>         0.2108
     53 H23        -1.1454   -3.1101   -1.0161 H         1 <0>         0.2099
     54 H24        -5.3624    1.7228    0.9033 H         1 <0>         0.0656
     55 H25        -5.1014   -2.5132    1.9620 H         1 <0>         0.0653
     56 H26         6.4612   -1.8909    0.5895 H         1 <0>         0.0736
     57 H27         5.7140   -2.4727   -0.9272 H         1 <0>         0.0736
@<TRIPOS>BOND
     1    1   24 1
     2    1   30 1
     3    2   12 1
     4    3   21 1
     5    4   30 1
     6    5   13 1
     7    5   52 1
     8    6   17 1
     9    6   53 1
    10    7   24 2
    11    8   29 2
    12    9   10 1
    13    9   13 1
    14    9   15 1
    15    9   20 1
    16   10   11 1
    17   10   14 1
    18   10   31 1
    19   11   12 1
    20   11   19 1
    21   11   32 1
    22   12   17 1
    23   12   18 1
    24   13   16 1
    25   13   24 1
    26   14   16 1
    27   14   33 1
    28   14   34 1
    29   15   17 1
    30   15   35 1
    31   15   36 1
    32   16   23 1
    33   16   37 1
    34   17   38 1
    35   18   22 1
    36   18   25 1
    37   18   26 1
    38   19   21 1
    39   19   39 1
    40   19   40 1
    41   20   41 1
    42   20   42 1
    43   20   43 1
    44   21   22 1
    45   21   44 1
    46   22   27 2
    47   23   45 1
    48   23   46 1
    49   23   47 1
    50   25   48 1
    51   25   49 1
    52   25   50 1
    53   26   28 2
    54   26   51 1
    55   27   29 1
    56   27   54 1
    57   28   29 1
    58   28   55 1
    59   30   56 1
    60   30   57 1
