@<TRIPOS>MOLECULE
DB13444
   33    33     0     0     0
SMALL
USER_CHARGES

@<TRIPOS>ATOM
      1 I1          0.2871    2.3086    1.0000 I         1 <0>        -0.0411
      2 I2          1.5052   -3.6433    0.3885 I         1 <0>        -0.0421
      3 I3         -4.2439   -1.6379   -0.0710 I         1 <0>        -0.0410
      4 O1          2.4327   -0.4856    2.0031 O.2       1 <0>        -0.2701
      5 O2          3.8752    2.2045   -1.2124 O.3       1 <0>        -0.3935
      6 O3         -1.7207   -3.9878   -1.3331 O.3       1 <0>        -0.4771
      7 O4         -2.0586   -4.4563    0.8653 O.2       1 <0>        -0.2451
      8 O5         -2.7429    1.8108   -1.7713 O.2       1 <0>        -0.2758
      9 N1          2.7320   -0.2191   -0.2808 N.am      1 <0>        -0.3091
     10 N2         -2.6585    1.1127    0.4772 N.am      1 <0>        -0.2840
     11 C1          0.5399   -0.7357    0.6416 C.ar      1 <0>         0.0655
     12 C2         -1.7349    0.0572    0.4592 C.ar      1 <0>         0.0615
     13 C3         -0.3787    0.3138    0.6608 C.ar      1 <0>         0.0487
     14 C4         -1.2537   -2.2980    0.2188 C.ar      1 <0>         0.0875
     15 C5          0.1025   -2.0416    0.4206 C.ar      1 <0>         0.0415
     16 C6         -2.1723   -1.2486    0.2381 C.ar      1 <0>         0.0506
     17 C7          1.9626   -0.4665    0.8567 C.2       1 <0>         0.2462
     18 C8          4.1532    0.0394   -0.2346 C.3       1 <0>         0.0351
     19 C9          4.4235    1.5283   -0.0886 C.3       1 <0>         0.0597
     20 C10        -1.7133   -3.6683   -0.0136 C.2       1 <0>         0.3389
     21 C11        -3.0879    1.8951   -0.5971 C.2       1 <0>         0.2141
     22 C12        -4.0930    2.9312   -0.1601 C.3       1 <0>         0.0125
     23 H1          4.5690   -0.3354   -1.1755 H         1 <0>         0.0485
     24 H2          4.5998   -0.5141    0.5974 H         1 <0>         0.0485
     25 H3          2.2789   -0.2224   -1.1903 H         1 <0>         0.1491
     26 H4         -2.9459    1.4034    1.4092 H         1 <0>         0.1549
     27 H5          5.4999    1.7217   -0.0645 H         1 <0>         0.0573
     28 H6          3.9756    1.9396    0.8212 H         1 <0>         0.0573
     29 H7         -4.8963    2.4590    0.4127 H         1 <0>         0.0323
     30 H8         -4.5272    3.4184   -1.0376 H         1 <0>         0.0323
     31 H9         -3.5966    3.6838    0.4585 H         1 <0>         0.0323
     32 H10         2.9168    2.0394   -1.2128 H         1 <0>         0.2095
     33 H11        -2.0295   -4.9064   -1.4855 H         1 <0>         0.2954
@<TRIPOS>BOND
     1    1   13 1
     2    2   15 1
     3    3   16 1
     4    4   17 2
     5    5   19 1
     6    5   32 1
     7    6   20 1
     8    6   33 1
     9    7   20 2
    10    8   21 2
    11    9   17 am
    12    9   18 1
    13    9   25 1
    14   10   12 1
    15   10   21 am
    16   10   26 1
    17   11   13 ar
    18   11   15 ar
    19   11   17 1
    20   12   13 ar
    21   12   16 ar
    22   14   15 ar
    23   14   16 ar
    24   14   20 1
    25   18   19 1
    26   18   23 1
    27   18   24 1
    28   19   27 1
    29   19   28 1
    30   21   22 1
    31   22   29 1
    32   22   30 1
    33   22   31 1
