@<TRIPOS>MOLECULE
DB13967
   71    73     0     0     0
SMALL
USER_CHARGES

@<TRIPOS>ATOM
      1 S1         -0.2022    2.2448    2.5150 S.o2      1 <0>         0.1102
      2 S2         -0.5459    6.6533   -0.5979 S.o2      1 <0>         0.1131
      3 O1         -0.4011    4.6737   -2.8630 O.3       1 <0>        -0.5048
      4 O2          1.3843    2.1989    2.9001 O.3       1 <0>        -0.2498
      5 O3         -0.6823    0.8786    2.3986 O.2       1 <0>        -0.1421
      6 O4         -0.8369    3.1847    3.4242 O.2       1 <0>        -0.1421
      7 O5         -2.0552    6.9278   -1.1609 O.3       1 <0>        -0.2497
      8 O6          0.4017    7.0762   -1.6159 O.2       1 <0>        -0.1420
      9 O7         -0.4868    7.2011    0.7483 O.2       1 <0>        -0.1420
     10 N1         -4.6792   -2.2522   -0.0188 N.pl3     1 <0>        -0.2291
     11 N2          4.8569   -2.0485   -0.0088 N.pl3     1 <0>        -0.3304
     12 C1         -0.0878    0.6907   -0.1616 C.2       1 <0>        -0.0016
     13 C2         -0.2029    2.1706   -0.2401 C.ar      1 <0>         0.0141
     14 C3         -1.2183   -0.0339   -0.1260 C.2       1 <0>        -0.0163
     15 C4          1.2123   -0.0293   -0.1214 C.ar      1 <0>        -0.0166
     16 C5         -0.2587    2.9371    0.9058 C.ar      1 <0>         0.1267
     17 C6         -3.5984   -1.5597   -0.0528 C.2       1 <0>         0.2025
     18 C7          3.6237   -1.3648   -0.0469 C.ar      1 <0>         0.0297
     19 C8         -0.2495    2.7319   -1.5014 C.ar      1 <0>        -0.0085
     20 C9         -2.5135    0.6284   -0.1633 C.2       1 <0>        -0.0478
     21 C10        -1.1549   -1.4857   -0.0503 C.2       1 <0>        -0.0478
     22 C11         1.7960   -0.4151   -1.3097 C.ar      1 <0>        -0.0522
     23 C12         1.7920   -0.2876    1.1029 C.ar      1 <0>        -0.0522
     24 C13        -0.3657    4.3228    0.7873 C.ar      1 <0>        -0.0029
     25 C14        -3.6532   -0.0758   -0.1296 C.2       1 <0>         0.0098
     26 C15        -2.2705   -2.2273   -0.0149 C.2       1 <0>         0.0098
     27 C16         3.0157   -1.0908   -1.2721 C.ar      1 <0>        -0.0401
     28 C17         3.0118   -0.9631    1.1405 C.ar      1 <0>        -0.0401
     29 C18        -0.4144    4.9130   -0.4754 C.ar      1 <0>         0.1599
     30 C19        -6.0167   -1.6066   -0.0545 C.3       1 <0>         0.1428
     31 C20        -4.6489   -3.7354    0.0581 C.3       1 <0>         0.1428
     32 C21         5.4964   -2.3383    1.2590 C.3       1 <0>         0.0093
     33 C22         5.4936   -2.4821   -1.2365 C.3       1 <0>         0.0093
     34 C23        -0.3563    4.1176   -1.6198 C.ar      1 <0>         0.1448
     35 C24        -6.4795   -1.3383    1.3614 C.3       1 <0>        -0.0054
     36 C25        -4.6610   -4.3084   -1.3429 C.3       1 <0>        -0.0054
     37 C26         6.2393   -1.1152    1.7611 C.3       1 <0>        -0.0494
     38 C27         6.3973   -1.3878   -1.7709 C.3       1 <0>        -0.0494
     39 H1         -0.2044    2.1123   -2.3936 H         1 <0>         0.0661
     40 H2         -2.6151    1.7064   -0.2046 H         1 <0>         0.0626
     41 H3         -0.2164   -2.0268   -0.0323 H         1 <0>         0.0626
     42 H4          1.3329   -0.2035   -2.2694 H         1 <0>         0.0624
     43 H5          1.3443   -0.0633    2.0549 H         1 <0>         0.0624
     44 H6         -0.4024    4.9387    1.6806 H         1 <0>         0.0658
     45 H7         -4.5800    0.4811   -0.1286 H         1 <0>         0.0683
     46 H8         -2.1511   -3.3017    0.0100 H         1 <0>         0.0683
     47 H9          3.4449   -1.3562   -2.2313 H         1 <0>         0.0636
     48 H10         3.4241   -1.1578    2.1243 H         1 <0>         0.0636
     49 H11        -6.7073   -2.3147   -0.5285 H         1 <0>         0.1023
     50 H12        -6.0292   -0.7263   -0.7009 H         1 <0>         0.1023
     51 H13        -5.5585   -4.0528    0.5823 H         1 <0>         0.1023
     52 H14        -3.8261   -4.0964    0.6790 H         1 <0>         0.1023
     53 H15         4.7941   -2.7245    2.0064 H         1 <0>         0.0461
     54 H16         6.2288   -3.1466    1.1363 H         1 <0>         0.0461
     55 H17         6.1201   -3.3613   -1.0359 H         1 <0>         0.0461
     56 H18         4.7895   -2.8390   -1.9948 H         1 <0>         0.0461
     57 H19        -6.5284   -2.2571    1.9561 H         1 <0>         0.0291
     58 H20        -5.8158   -0.6406    1.8830 H         1 <0>         0.0291
     59 H21        -7.4821   -0.8979    1.3496 H         1 <0>         0.0291
     60 H22        -5.5420   -3.9855   -1.9085 H         1 <0>         0.0291
     61 H23        -3.7741   -4.0125   -1.9131 H         1 <0>         0.0291
     62 H24        -4.6785   -5.4024   -1.2990 H         1 <0>         0.0291
     63 H25         6.6831   -1.3278    2.7395 H         1 <0>         0.0245
     64 H26         5.5950   -0.2388    1.8739 H         1 <0>         0.0245
     65 H27         7.0560   -0.8362    1.0898 H         1 <0>         0.0245
     66 H28         6.8232   -1.6929   -2.7325 H         1 <0>         0.0245
     67 H29         7.2335   -1.1893   -1.0951 H         1 <0>         0.0245
     68 H30         5.8586   -0.4477   -1.9259 H         1 <0>         0.0245
     69 H31        -0.3488    3.9679   -3.5300 H         1 <0>         0.2922
     70 H32         1.8382    3.0738    2.9306 H         1 <0>         0.2449
     71 H33        -2.7872    6.6141   -0.5793 H         1 <0>         0.2449
@<TRIPOS>BOND
     1    1    4 1
     2    1    5 2
     3    1    6 2
     4    1   16 1
     5    2    7 1
     6    2    8 2
     7    2    9 2
     8    2   29 1
     9    3   34 1
    10    3   69 1
    11    4   70 1
    12    7   71 1
    13   10   17 2
    14   10   30 1
    15   10   31 1
    16   11   18 1
    17   11   32 1
    18   11   33 1
    19   12   13 1
    20   12   14 2
    21   12   15 1
    22   13   16 ar
    23   13   19 ar
    24   14   20 1
    25   14   21 1
    26   15   22 ar
    27   15   23 ar
    28   16   24 ar
    29   17   25 1
    30   17   26 1
    31   18   27 ar
    32   18   28 ar
    33   19   34 ar
    34   19   39 1
    35   20   25 2
    36   20   40 1
    37   21   26 2
    38   21   41 1
    39   22   27 ar
    40   22   42 1
    41   23   28 ar
    42   23   43 1
    43   24   29 ar
    44   24   44 1
    45   25   45 1
    46   26   46 1
    47   27   47 1
    48   28   48 1
    49   29   34 ar
    50   30   35 1
    51   30   49 1
    52   30   50 1
    53   31   36 1
    54   31   51 1
    55   31   52 1
    56   32   37 1
    57   32   53 1
    58   32   54 1
    59   33   38 1
    60   33   55 1
    61   33   56 1
    62   35   57 1
    63   35   58 1
    64   35   59 1
    65   36   60 1
    66   36   61 1
    67   36   62 1
    68   37   63 1
    69   37   64 1
    70   37   65 1
    71   38   66 1
    72   38   67 1
    73   38   68 1
