@<TRIPOS>MOLECULE
DB13100
   14    13     0     0     0
SMALL
USER_CHARGES

@<TRIPOS>ATOM
      1 N1         -0.0386   -0.9422    0.4024 N.2       1 <0>        -0.0039
      2 N2         -2.3337   -0.6458    0.1171 N.pl3     1 <0>        -0.2888
      3 N3         -0.9976    1.1765   -0.2111 N.pl3     1 <0>        -0.2888
      4 N4          1.9860   -0.4353   -0.7670 N.pl3     1 <0>        -0.2861
      5 N5          1.6594    0.1166    1.4864 N.2       1 <0>        -0.1266
      6 C1         -1.0474   -0.1610    0.1137 C.2       1 <0>         0.3873
      7 C2          1.2261   -0.3996    0.3745 C.2       1 <0>         0.4223
      8 H1         -2.5274   -1.6160    0.3403 H         1 <0>         0.2547
      9 H2         -3.1248   -0.0512   -0.1041 H         1 <0>         0.2547
     10 H3         -1.8427    1.6974   -0.4192 H         1 <0>         0.2547
     11 H4         -0.1216    1.6851   -0.2553 H         1 <0>         0.2547
     12 H5          1.6309   -0.8517   -1.6209 H         1 <0>         0.2548
     13 H6          2.9223   -0.0466   -0.7923 H         1 <0>         0.2548
     14 H7          2.6092    0.4737    1.3356 H         1 <0>         0.3063
@<TRIPOS>BOND
     1    1    6 2
     2    1    7 1
     3    2    6 1
     4    2    8 1
     5    2    9 1
     6    3    6 1
     7    3   10 1
     8    3   11 1
     9    4    7 1
    10    4   12 1
    11    4   13 1
    12    5    7 2
    13    5   14 1
