@<TRIPOS>MOLECULE
DB13624
   30    30     0     0     0
SMALL
USER_CHARGES

@<TRIPOS>ATOM
      1 O1         -1.7475    1.6138   -0.3966 O.3       1 <0>        -0.4948
      2 N1          2.9834    0.4138   -0.7587 N.3       1 <0>        -0.3162
      3 C1          1.7870   -0.2004   -0.1752 C.3       1 <0>         0.0086
      4 C2          0.5713    0.0881   -1.0748 C.3       1 <0>        -0.0090
      5 C3         -0.7097   -0.5391   -0.5793 C.ar      1 <0>        -0.0043
      6 C4          1.6097    0.3435    1.2424 C.3       1 <0>        -0.0494
      7 C5         -1.8001    0.2584   -0.2673 C.ar      1 <0>         0.1233
      8 C6         -0.7670   -1.9183   -0.4461 C.ar      1 <0>        -0.0551
      9 C7          4.1613    0.0871    0.0275 C.3       1 <0>        -0.0155
     10 C8         -2.9760   -0.3374    0.1890 C.ar      1 <0>        -0.0197
     11 C9         -1.9428   -2.5139    0.0104 C.ar      1 <0>        -0.0613
     12 C10        -3.0472   -1.7235    0.3280 C.ar      1 <0>        -0.0583
     13 C11        -2.9225    2.3438   -0.0497 C.3       1 <0>         0.0788
     14 H1          1.9373   -1.2857   -0.1204 H         1 <0>         0.0461
     15 H2          0.7607   -0.2983   -2.0861 H         1 <0>         0.0329
     16 H3          0.4598    1.1730   -1.1946 H         1 <0>         0.0329
     17 H4          0.6707   -0.0047    1.6858 H         1 <0>         0.0245
     18 H5          1.5866    1.4394    1.2566 H         1 <0>         0.0245
     19 H6          2.3954    0.0042    1.9250 H         1 <0>         0.0245
     20 H7          2.8747    1.4259   -0.8121 H         1 <0>         0.1219
     21 H8          0.0789   -2.5496   -0.7016 H         1 <0>         0.0621
     22 H9          5.0511    0.3535   -0.5530 H         1 <0>         0.0388
     23 H10         4.2348   -0.9843    0.2428 H         1 <0>         0.0388
     24 H11         4.2204    0.6561    0.9601 H         1 <0>         0.0388
     25 H12        -3.8730    0.2112    0.4546 H         1 <0>         0.0654
     26 H13        -1.9995   -3.5934    0.1157 H         1 <0>         0.0618
     27 H14        -3.9625   -2.1886    0.6827 H         1 <0>         0.0619
     28 H15        -3.1694    2.2311    1.0114 H         1 <0>         0.0660
     29 H16        -3.7636    2.0903   -0.7039 H         1 <0>         0.0660
     30 H17        -2.7023    3.4040   -0.2129 H         1 <0>         0.0660
@<TRIPOS>BOND
     1    1    7 1
     2    1   13 1
     3    2    3 1
     4    2    9 1
     5    2   20 1
     6    3    4 1
     7    3    6 1
     8    3   14 1
     9    4    5 1
    10    4   15 1
    11    4   16 1
    12    5    7 ar
    13    5    8 ar
    14    6   17 1
    15    6   18 1
    16    6   19 1
    17    7   10 ar
    18    8   11 ar
    19    8   21 1
    20    9   22 1
    21    9   23 1
    22    9   24 1
    23   10   12 ar
    24   10   25 1
    25   11   12 ar
    26   11   26 1
    27   12   27 1
    28   13   28 1
    29   13   29 1
    30   13   30 1
