@<TRIPOS>MOLECULE
DB13421
   34    35     0     0     0
SMALL
USER_CHARGES

@<TRIPOS>ATOM
      1 O1          1.4382    0.2231    1.2283 O.3       1 <0>        -0.3483
      2 O2          4.2656   -0.6788    0.4768 O.3       1 <0>        -0.3890
      3 O3          1.1798    2.9567    0.6674 O.3       1 <0>        -0.3924
      4 O4          0.0313   -3.6072    0.6254 O.2       1 <0>        -0.2464
      5 O5         -4.0234   -1.7863   -0.5543 O.2       1 <0>        -0.2674
      6 N1         -0.0818   -1.2974    0.3052 N.am      1 <0>        -0.2737
      7 N2         -1.9848   -2.6859    0.0362 N.am      1 <0>        -0.2746
      8 C1          1.3011   -1.0586    0.5985 C.3       1 <0>         0.1422
      9 C2          3.2432   -0.0417   -0.2860 C.3       1 <0>         0.0876
     10 C3          2.1743   -1.0478   -0.6456 C.3       1 <0>         0.0214
     11 C4          2.4956    0.9594    0.5837 C.3       1 <0>         0.1100
     12 C5          1.8591    2.0848   -0.2216 C.3       1 <0>         0.0729
     13 C6         -0.8863   -0.2133   -0.0213 C.2       1 <0>         0.0201
     14 C7         -0.6224   -2.6005    0.3442 C.2       1 <0>         0.3313
     15 C8         -2.1895   -0.2984   -0.3156 C.2       1 <0>         0.0330
     16 C9         -2.8321   -1.6394   -0.2949 C.2       1 <0>         0.2571
     17 C10        -3.0377    0.8821   -0.6645 C.3       1 <0>        -0.0240
     18 C11        -3.6769    1.5017    0.5650 C.3       1 <0>        -0.0611
     19 H1          1.6654   -1.8106    1.3084 H         1 <0>         0.0840
     20 H2          3.7193    0.4159   -1.1582 H         1 <0>         0.0621
     21 H3          1.6132   -0.6937   -1.5187 H         1 <0>         0.0335
     22 H4          2.5583   -2.0468   -0.8751 H         1 <0>         0.0335
     23 H5          3.1265    1.3736    1.3780 H         1 <0>         0.0646
     24 H6          1.1553    1.7277   -0.9767 H         1 <0>         0.0584
     25 H7          2.6362    2.6632   -0.7324 H         1 <0>         0.0584
     26 H8         -0.4329    0.7645   -0.0287 H         1 <0>         0.0816
     27 H9          4.6788   -1.3493   -0.0937 H         1 <0>         0.2099
     28 H10        -2.3961   -3.6149    0.0583 H         1 <0>         0.1734
     29 H11        -2.4261    1.6441   -1.1647 H         1 <0>         0.0313
     30 H12        -3.8121    0.6054   -1.3893 H         1 <0>         0.0313
     31 H13         0.7949    3.6701    0.1303 H         1 <0>         0.2095
     32 H14        -4.2834    2.3673    0.2795 H         1 <0>         0.0233
     33 H15        -2.9200    1.8434    1.2793 H         1 <0>         0.0233
     34 H16        -4.3306    0.7875    1.0769 H         1 <0>         0.0233
@<TRIPOS>BOND
     1    1    8 1
     2    1   11 1
     3    2    9 1
     4    2   27 1
     5    3   12 1
     6    3   31 1
     7    4   14 2
     8    5   16 2
     9    6    8 1
    10    6   13 1
    11    6   14 am
    12    7   14 am
    13    7   16 am
    14    7   28 1
    15    8   10 1
    16    8   19 1
    17    9   10 1
    18    9   11 1
    19    9   20 1
    20   10   21 1
    21   10   22 1
    22   11   12 1
    23   11   23 1
    24   12   24 1
    25   12   25 1
    26   13   15 2
    27   13   26 1
    28   15   16 1
    29   15   17 1
    30   17   18 1
    31   17   29 1
    32   17   30 1
    33   18   32 1
    34   18   33 1
    35   18   34 1
