@<TRIPOS>MOLECULE
DB13166
   52    54     0     0     0
SMALL
USER_CHARGES

@<TRIPOS>ATOM
      1 S1         -2.2680   -0.3494   -1.5017 S.3       1 <0>        -0.1202
      2 S2          4.0220    0.4247   -1.0651 S.3       1 <0>        -0.0823
      3 O1          1.9435    2.7051   -1.9694 O.2       1 <0>        -0.2753
      4 O2         -0.0816    0.2454    2.4468 O.3       1 <0>        -0.4793
      5 O3          0.2534   -0.6329    0.3702 O.2       1 <0>        -0.2489
      6 O4          4.4710   -0.4867    1.3624 O.2       1 <0>        -0.2797
      7 N1          0.1912    1.9423   -0.6688 N.am      1 <0>        -0.2867
      8 C1         -0.4502    1.6672    0.6131 C.3       1 <0>         0.1238
      9 C2         -2.0830    1.4358   -1.1719 C.3       1 <0>         0.0278
     10 C3         -1.9509    1.7352    0.3251 C.3       1 <0>        -0.0102
     11 C4         -0.7833    1.9815   -1.7543 C.3       1 <0>         0.0278
     12 C5          1.5083    2.3199   -0.8818 C.2       1 <0>         0.2199
     13 C6          2.4264    2.2352    0.3114 C.3       1 <0>         0.0423
     14 C7         -0.0530    0.3037    1.0929 C.2       1 <0>         0.3255
     15 C8          3.8661    1.9774   -0.1274 C.3       1 <0>         0.0121
     16 C9          2.3166    3.5524    1.0703 C.3       1 <0>        -0.0533
     17 C10        -3.8084   -0.6976   -0.6645 C.ar      1 <0>         0.0082
     18 C11        -4.9759   -0.0377   -1.0486 C.ar      1 <0>        -0.0483
     19 C12        -3.8434   -1.6295    0.3730 C.ar      1 <0>        -0.0483
     20 C13        -6.1780   -0.3095   -0.3954 C.ar      1 <0>        -0.0607
     21 C14        -5.0457   -1.9014    1.0260 C.ar      1 <0>        -0.0607
     22 C15         4.0118   -0.7393    0.2553 C.2       1 <0>         0.2196
     23 C16        -6.2129   -1.2413    0.6418 C.ar      1 <0>        -0.0617
     24 C17         3.4504   -2.0838   -0.0324 C.ar      1 <0>         0.0284
     25 C18         2.8658   -2.8294    0.9915 C.ar      1 <0>        -0.0504
     26 C19         3.5068   -2.6011   -1.3267 C.ar      1 <0>        -0.0504
     27 C20         2.3382   -4.0919    0.7213 C.ar      1 <0>        -0.0611
     28 C21         2.9791   -3.8636   -1.5969 C.ar      1 <0>        -0.0611
     29 C22         2.3948   -4.6090   -0.5728 C.ar      1 <0>        -0.0617
     30 H1         -0.1612    2.4083    1.3589 H         1 <0>         0.0617
     31 H2         -2.9404    1.9527   -1.6135 H         1 <0>         0.0432
     32 H3         -2.2828    2.7692    0.4912 H         1 <0>         0.0300
     33 H4         -2.5522    1.1042    0.9858 H         1 <0>         0.0300
     34 H5         -0.4032    1.4493   -2.6327 H         1 <0>         0.0476
     35 H6         -0.9029    3.0364   -2.0307 H         1 <0>         0.0476
     36 H7          2.1341    1.4276    0.9834 H         1 <0>         0.0400
     37 H8          4.5419    1.9650    0.7343 H         1 <0>         0.0388
     38 H9          4.2201    2.7816   -0.7832 H         1 <0>         0.0388
     39 H10         2.8692    3.4952    2.0144 H         1 <0>         0.0237
     40 H11         1.2908    3.8455    1.3013 H         1 <0>         0.0237
     41 H12         2.7482    4.3746    0.4867 H         1 <0>         0.0237
     42 H13         0.1764   -0.6404    2.7801 H         1 <0>         0.2951
     43 H14        -4.9758    0.6851   -1.8604 H         1 <0>         0.0629
     44 H15        -2.9432   -2.1522    0.6869 H         1 <0>         0.0629
     45 H16        -7.0874    0.2028   -0.6959 H         1 <0>         0.0618
     46 H17        -5.0730   -2.6266    1.8339 H         1 <0>         0.0618
     47 H18        -7.1490   -1.4531    1.1502 H         1 <0>         0.0618
     48 H19         2.8079   -2.4395    2.0044 H         1 <0>         0.0625
     49 H20         3.9763   -2.0731   -2.1509 H         1 <0>         0.0625
     50 H21         1.8820   -4.6718    1.5183 H         1 <0>         0.0618
     51 H22         3.0284   -4.2697   -2.6030 H         1 <0>         0.0618
     52 H23         1.9848   -5.5925   -0.7830 H         1 <0>         0.0618
@<TRIPOS>BOND
     1    1    9 1
     2    1   17 1
     3    2   15 1
     4    2   22 1
     5    3   12 2
     6    4   14 1
     7    4   42 1
     8    5   14 2
     9    6   22 2
    10    7    8 1
    11    7   11 1
    12    7   12 am
    13    8   10 1
    14    8   14 1
    15    8   30 1
    16    9   10 1
    17    9   11 1
    18    9   31 1
    19   10   32 1
    20   10   33 1
    21   11   34 1
    22   11   35 1
    23   12   13 1
    24   13   15 1
    25   13   16 1
    26   13   36 1
    27   15   37 1
    28   15   38 1
    29   16   39 1
    30   16   40 1
    31   16   41 1
    32   17   18 ar
    33   17   19 ar
    34   18   20 ar
    35   18   43 1
    36   19   21 ar
    37   19   44 1
    38   20   23 ar
    39   20   45 1
    40   21   23 ar
    41   21   46 1
    42   22   24 1
    43   23   47 1
    44   24   25 ar
    45   24   26 ar
    46   25   27 ar
    47   25   48 1
    48   26   28 ar
    49   26   49 1
    50   27   29 ar
    51   27   50 1
    52   28   29 ar
    53   28   51 1
    54   29   52 1
