@<TRIPOS>MOLECULE
DB14631
   59    62     0     0     0
SMALL
USER_CHARGES

@<TRIPOS>ATOM
      1 P1          6.5348    1.5006   -0.0012 P.3       1 <0>         0.4728
      2 O1          2.3797   -0.8650   -1.7223 O.3       1 <0>        -0.3804
      3 O2         -0.6327    1.5313    1.8049 O.3       1 <0>        -0.3914
      4 O3          3.9893   -1.7768    1.1543 O.2       1 <0>        -0.2919
      5 O4          5.5555    0.2748    0.4080 O.3       1 <0>        -0.2790
      6 O5         -6.2585    2.1252   -2.3398 O.2       1 <0>        -0.2879
      7 O6          5.5889    2.8057    0.1297 O.3       1 <0>        -0.3026
      8 O7          6.6993    1.3194   -1.5997 O.3       1 <0>        -0.3026
      9 O8          7.8234    1.5625    0.7657 O.2       1 <0>        -0.2275
     10 C1          1.0217   -0.6329    0.3151 C.3       1 <0>         0.0091
     11 C2         -0.1338   -1.4339   -0.3249 C.3       1 <0>        -0.0292
     12 C3         -1.5214   -1.0381    0.2016 C.3       1 <0>        -0.0311
     13 C4         -1.7659    0.4799   -0.1129 C.3       1 <0>         0.0007
     14 C5          2.2259   -1.3236   -0.3823 C.3       1 <0>         0.1315
     15 C6          0.8004    0.8537   -0.0290 C.3       1 <0>        -0.0178
     16 C7          0.3220   -2.8842   -0.1872 C.3       1 <0>        -0.0463
     17 C8         -0.5912    1.3758    0.3935 C.3       1 <0>         0.0600
     18 C9         -3.2196    0.9471    0.2947 C.3       1 <0>         0.0131
     19 C10         1.8497   -2.8227   -0.3931 C.3       1 <0>        -0.0162
     20 C11        -2.6098   -1.9208   -0.4355 C.3       1 <0>        -0.0458
     21 C12         1.1280   -0.8314    1.8527 C.3       1 <0>        -0.0562
     22 C13        -4.0148   -1.4815   -0.0428 C.3       1 <0>        -0.0302
     23 C14        -4.2112   -0.0212   -0.3599 C.2       1 <0>        -0.0559
     24 C15         3.5553   -1.0564    0.2569 C.2       1 <0>         0.1910
     25 C16        -3.4778    0.9428    1.8183 C.3       1 <0>        -0.0520
     26 C17        -3.4574    2.3761   -0.1719 C.2       1 <0>        -0.0701
     27 C18        -5.1806    0.3619   -1.2055 C.2       1 <0>        -0.0149
     28 C19         4.3210    0.1412   -0.2643 C.3       1 <0>         0.1200
     29 C20        -4.4194    2.7638   -1.0148 C.2       1 <0>        -0.0180
     30 C21        -5.3602    1.7795   -1.5800 C.2       1 <0>         0.1787
     31 H1         -0.1462   -1.2231   -1.4074 H         1 <0>         0.0310
     32 H2         -1.5629   -1.1993    1.2836 H         1 <0>         0.0308
     33 H3         -1.7207    0.5632   -1.2126 H         1 <0>         0.0340
     34 H4          0.8974    1.0097   -1.1103 H         1 <0>         0.0297
     35 H5          1.5750    1.4618    0.4516 H         1 <0>         0.0297
     36 H6         -0.1495   -3.5351   -0.9306 H         1 <0>         0.0269
     37 H7          0.0840   -3.2870    0.8036 H         1 <0>         0.0269
     38 H8         -0.6999    2.3792   -0.0329 H         1 <0>         0.0596
     39 H9          2.3356   -3.4022    0.3991 H         1 <0>         0.0297
     40 H10         2.1112   -3.2960   -1.3466 H         1 <0>         0.0297
     41 H11        -2.4712   -2.9651   -0.1311 H         1 <0>         0.0271
     42 H12        -2.5149   -1.8964   -1.5293 H         1 <0>         0.0271
     43 H13         1.8785   -0.1550    2.2776 H         1 <0>         0.0236
     44 H14         0.1906   -0.6390    2.3773 H         1 <0>         0.0236
     45 H15         1.4210   -1.8500    2.1273 H         1 <0>         0.0236
     46 H16        -4.1818   -1.6574    1.0259 H         1 <0>         0.0310
     47 H17        -4.7429   -2.1079   -0.5725 H         1 <0>         0.0310
     48 H18        -2.9883    1.7805    2.3267 H         1 <0>         0.0241
     49 H19        -4.5495    1.0395    2.0373 H         1 <0>         0.0241
     50 H20        -3.1348    0.0228    2.3009 H         1 <0>         0.0241
     51 H21        -2.8109    3.1518    0.2326 H         1 <0>         0.0582
     52 H22         2.9784   -1.4729   -2.1893 H         1 <0>         0.2108
     53 H23         0.0858    2.1352    2.0585 H         1 <0>         0.2098
     54 H24        -5.8589   -0.3530   -1.6591 H         1 <0>         0.0655
     55 H25         3.7267    1.0429   -0.1082 H         1 <0>         0.0646
     56 H26         4.5328    0.0056   -1.3273 H         1 <0>         0.0646
     57 H27        -4.5397    3.8043   -1.2933 H         1 <0>         0.0653
     58 H28         5.9850    3.6936    0.0006 H         1 <0>         0.2220
     59 H29         7.3300    1.8967   -2.0803 H         1 <0>         0.2220
@<TRIPOS>BOND
     1    1    5 1
     2    1    7 1
     3    1    8 1
     4    1    9 2
     5    2   14 1
     6    2   52 1
     7    3   17 1
     8    3   53 1
     9    4   24 2
    10    5   28 1
    11    6   30 2
    12    7   58 1
    13    8   59 1
    14   10   11 1
    15   10   14 1
    16   10   15 1
    17   10   21 1
    18   11   12 1
    19   11   16 1
    20   11   31 1
    21   12   13 1
    22   12   20 1
    23   12   32 1
    24   13   17 1
    25   13   18 1
    26   13   33 1
    27   14   19 1
    28   14   24 1
    29   15   17 1
    30   15   34 1
    31   15   35 1
    32   16   19 1
    33   16   36 1
    34   16   37 1
    35   17   38 1
    36   18   23 1
    37   18   25 1
    38   18   26 1
    39   19   39 1
    40   19   40 1
    41   20   22 1
    42   20   41 1
    43   20   42 1
    44   21   43 1
    45   21   44 1
    46   21   45 1
    47   22   23 1
    48   22   46 1
    49   22   47 1
    50   23   27 2
    51   24   28 1
    52   25   48 1
    53   25   49 1
    54   25   50 1
    55   26   29 2
    56   26   51 1
    57   27   30 1
    58   27   54 1
    59   28   55 1
    60   28   56 1
    61   29   30 1
    62   29   57 1
