@<TRIPOS>MOLECULE
DB14212
   19    19     0     0     0
SMALL
USER_CHARGES

@<TRIPOS>ATOM
      1 O1         -2.2675    0.4616   -0.0003 O.3       1 <0>        -0.4645
      2 O2          3.9661    0.7259    0.0015 O.3       1 <0>        -0.5068
      3 O3         -1.8964   -1.8102   -0.0009 O.2       1 <0>        -0.2450
      4 C1         -0.0579   -0.2921   -0.0010 C.ar      1 <0>         0.0592
      5 C2          0.9144   -1.2921   -0.0006 C.ar      1 <0>        -0.0443
      6 C3          0.3218    1.0502   -0.0010 C.ar      1 <0>        -0.0443
      7 C4          2.2666   -0.9499   -0.0001 C.ar      1 <0>        -0.0194
      8 C5          1.6741    1.3924   -0.0007 C.ar      1 <0>        -0.0194
      9 C6          2.6466    0.3923   -0.0002 C.ar      1 <0>         0.1169
     10 C7         -1.4679   -0.6486   -0.0012 C.2       1 <0>         0.3389
     11 C8         -3.6819    0.2402    0.0008 C.3       1 <0>         0.0820
     12 H1          0.6400   -2.3438   -0.0005 H         1 <0>         0.0627
     13 H2         -0.3997    1.8623   -0.0013 H         1 <0>         0.0627
     14 H3          3.0146   -1.7384    0.0005 H         1 <0>         0.0654
     15 H4          1.9645    2.4395   -0.0004 H         1 <0>         0.0654
     16 H5         -4.1790    1.2138    0.0015 H         1 <0>         0.0661
     17 H6         -3.9769   -0.3072    0.9010 H         1 <0>         0.0661
     18 H7         -3.9785   -0.3068   -0.8989 H         1 <0>         0.0661
     19 H8          4.4972   -0.0890    0.0018 H         1 <0>         0.2921
@<TRIPOS>BOND
     1    1   10 1
     2    1   11 1
     3    2    9 1
     4    2   19 1
     5    3   10 2
     6    4    5 ar
     7    4    6 ar
     8    4   10 1
     9    5    7 ar
    10    5   12 1
    11    6    8 ar
    12    6   13 1
    13    7    9 ar
    14    7   14 1
    15    8    9 ar
    16    8   15 1
    17   11   16 1
    18   11   17 1
    19   11   18 1
