@<TRIPOS>MOLECULE
DB14703
   73    77     0     0     0
SMALL
USER_CHARGES

@<TRIPOS>ATOM
      1 S1         10.3063    0.2405   -0.6955 S.o2      1 <0>         0.1096
      2 F1         -4.0156   -0.0290   -1.6021 F         1 <0>        -0.2377
      3 O1          0.2213   -0.9276   -2.0352 O.3       1 <0>        -0.3801
      4 O2         -2.6993    2.5561    0.5200 O.3       1 <0>        -0.3886
      5 O3          1.7392    1.2661   -0.6089 O.2       1 <0>        -0.2907
      6 O4          4.0600   -0.0188   -0.1820 O.3       1 <0>        -0.4534
      7 O5         -8.8593    0.3994   -1.9831 O.2       1 <0>        -0.2879
      8 O6          5.3376   -1.8978    0.1294 O.2       1 <0>        -0.2449
      9 O7         11.0015   -0.3925    0.6420 O.3       1 <0>        -0.2498
     10 O8         10.1557   -0.8474   -1.6509 O.2       1 <0>        -0.1421
     11 O9         11.0345    1.4475   -1.0547 O.2       1 <0>        -0.1421
     12 C1         -0.8470    0.1219   -0.0949 C.3       1 <0>         0.0096
     13 C2         -1.8864   -1.0175   -0.0158 C.3       1 <0>        -0.0263
     14 C3         -3.2412   -0.5717    0.5561 C.3       1 <0>         0.0003
     15 C4         -3.8378    0.5541   -0.3569 C.3       1 <0>         0.1526
     16 C5          0.3687   -0.6845   -0.6402 C.3       1 <0>         0.1351
     17 C6         -1.1320   -2.1512    0.6786 C.3       1 <0>        -0.0436
     18 C7         -1.4192    1.2027   -1.0354 C.3       1 <0>        -0.0151
     19 C8          0.3325   -2.0060    0.1854 C.3       1 <0>        -0.0071
     20 C9         -2.8178    1.7049   -0.6090 C.3       1 <0>         0.0910
     21 C10        -5.2795    0.9966    0.1135 C.3       1 <0>         0.0443
     22 C11        -4.2006   -1.7721    0.6578 C.3       1 <0>        -0.0432
     23 C12        -0.5004    0.7347    1.2906 C.3       1 <0>        -0.0562
     24 C13        -5.5959   -1.3597    1.1114 C.3       1 <0>        -0.0301
     25 C14        -6.1364   -0.2706    0.2206 C.2       1 <0>        -0.0532
     26 C15         1.6773    0.0407   -0.5208 C.2       1 <0>         0.2024
     27 C16         0.7987   -3.2524   -0.5612 C.3       1 <0>        -0.0594
     28 C17        -5.3047    1.7064    1.4866 C.3       1 <0>        -0.0493
     29 C18        -5.8773    1.9812   -0.8816 C.2       1 <0>        -0.0674
     30 C19        -7.2803   -0.4573   -0.4564 C.2       1 <0>        -0.0148
     31 C20         2.9016   -0.8190   -0.2884 C.3       1 <0>         0.1534
     32 C21        -7.0151    1.8008   -1.5592 C.2       1 <0>        -0.0180
     33 C22        -7.8050    0.5690   -1.3801 C.2       1 <0>         0.1787
     34 C23         5.2498   -0.6781    0.0313 C.2       1 <0>         0.3396
     35 C24         6.3736    0.2550    0.1245 C.ar      1 <0>         0.0609
     36 C25         7.6405   -0.1501   -0.2796 C.ar      1 <0>        -0.0204
     37 C26         6.1628    1.5383    0.6163 C.ar      1 <0>        -0.0477
     38 C27         8.7110    0.7396   -0.1908 C.ar      1 <0>         0.1176
     39 C28         7.2332    2.4281    0.7050 C.ar      1 <0>        -0.0591
     40 C29         8.5074    2.0288    0.3014 C.ar      1 <0>        -0.0344
     41 H1         -2.0874   -1.3774   -1.0382 H         1 <0>         0.0311
     42 H2         -3.1051   -0.1904    1.5719 H         1 <0>         0.0336
     43 H3         -1.1749   -2.0358    1.7683 H         1 <0>         0.0272
     44 H4         -1.5630   -3.1280    0.4349 H         1 <0>         0.0272
     45 H5         -1.5244    0.8071   -2.0524 H         1 <0>         0.0297
     46 H6         -0.7291    2.0524   -1.0935 H         1 <0>         0.0297
     47 H7          0.9284   -1.9238    1.1013 H         1 <0>         0.0330
     48 H8         -3.1779    2.3297   -1.4336 H         1 <0>         0.0626
     49 H9         -3.8064   -2.5087    1.3678 H         1 <0>         0.0272
     50 H10        -4.2696   -2.2781   -0.3143 H         1 <0>         0.0272
     51 H11         0.2123    0.1209    1.8516 H         1 <0>         0.0236
     52 H12        -0.0426    1.7243    1.1838 H         1 <0>         0.0236
     53 H13        -1.3582    0.8458    1.9527 H         1 <0>         0.0236
     54 H14        -5.5678   -1.0114    2.1502 H         1 <0>         0.0310
     55 H15        -6.2461   -2.2431    1.1036 H         1 <0>         0.0310
     56 H16         1.8328   -3.1909   -0.9000 H         1 <0>         0.0233
     57 H17         0.7279   -4.1288    0.0933 H         1 <0>         0.0233
     58 H18         0.1687   -3.4519   -1.4349 H         1 <0>         0.0233
     59 H19        -4.7153    1.1836    2.2456 H         1 <0>         0.0242
     60 H20        -4.9395    2.7377    1.4334 H         1 <0>         0.0242
     61 H21        -6.3304    1.7730    1.8740 H         1 <0>         0.0242
     62 H22         0.3179   -0.0861   -2.5118 H         1 <0>         0.2108
     63 H23        -5.3511    2.9206   -1.0370 H         1 <0>         0.0583
     64 H24        -2.7771    2.0292    1.3286 H         1 <0>         0.2099
     65 H25        -7.8560   -1.3722   -0.3645 H         1 <0>         0.0656
     66 H26         3.0231   -1.4736   -1.1555 H         1 <0>         0.0779
     67 H27         2.8094   -1.3837    0.6396 H         1 <0>         0.0779
     68 H28        -7.3891    2.5531   -2.2438 H         1 <0>         0.0653
     69 H29         7.7919   -1.1576   -0.6581 H         1 <0>         0.0645
     70 H30         5.1838    1.8718    0.9495 H         1 <0>         0.0626
     71 H31         7.0756    3.4303    1.0928 H         1 <0>         0.0618
     72 H32         9.3268    2.7367    0.3880 H         1 <0>         0.0637
     73 H33        10.5501   -1.1843    1.0186 H         1 <0>         0.2449
@<TRIPOS>BOND
     1    1    9 1
     2    1   10 2
     3    1   11 2
     4    1   38 1
     5    2   15 1
     6    3   16 1
     7    3   62 1
     8    4   20 1
     9    4   64 1
    10    5   26 2
    11    6   31 1
    12    6   34 1
    13    7   33 2
    14    8   34 2
    15    9   73 1
    16   12   13 1
    17   12   16 1
    18   12   18 1
    19   12   23 1
    20   13   14 1
    21   13   17 1
    22   13   41 1
    23   14   15 1
    24   14   22 1
    25   14   42 1
    26   15   20 1
    27   15   21 1
    28   16   19 1
    29   16   26 1
    30   17   19 1
    31   17   43 1
    32   17   44 1
    33   18   20 1
    34   18   45 1
    35   18   46 1
    36   19   27 1
    37   19   47 1
    38   20   48 1
    39   21   25 1
    40   21   28 1
    41   21   29 1
    42   22   24 1
    43   22   49 1
    44   22   50 1
    45   23   51 1
    46   23   52 1
    47   23   53 1
    48   24   25 1
    49   24   54 1
    50   24   55 1
    51   25   30 2
    52   26   31 1
    53   27   56 1
    54   27   57 1
    55   27   58 1
    56   28   59 1
    57   28   60 1
    58   28   61 1
    59   29   32 2
    60   29   63 1
    61   30   33 1
    62   30   65 1
    63   31   66 1
    64   31   67 1
    65   32   33 1
    66   32   68 1
    67   34   35 1
    68   35   36 ar
    69   35   37 ar
    70   36   38 ar
    71   36   69 1
    72   37   39 ar
    73   37   70 1
    74   38   40 ar
    75   39   40 ar
    76   39   71 1
    77   40   72 1
