@<TRIPOS>MOLECULE
DB14568
   63    67     0     0     0
SMALL
USER_CHARGES

@<TRIPOS>ATOM
      1 Cl1         0.3583    2.0790    2.5997 Cl        1 <0>        -0.0832
      2 F1         -7.5133   -0.7816    0.4746 F         1 <0>        -0.2055
      3 F2         -6.9567   -2.8775    0.6039 F         1 <0>        -0.2055
      4 F3          1.7138    3.7242   -2.4700 F         1 <0>        -0.2038
      5 O1         -1.9988   -1.6729   -0.6801 O.2       1 <0>        -0.2734
      6 O2          1.1760   -1.8543    1.2731 O.2       1 <0>        -0.2732
      7 O3          4.4200   -4.0232    0.4201 O.2       1 <0>        -0.2752
      8 N1         -3.1811   -0.8480    1.1359 N.am      1 <0>        -0.3103
      9 N2          0.2001   -0.2509   -0.1467 N.am      1 <0>        -0.2522
     10 N3          3.4766   -1.8725   -0.0253 N.am      1 <0>        -0.2440
     11 N4          5.4114   -1.4971    1.3297 N.ar      1 <0>        -0.2398
     12 N5         -0.0347    0.8018   -3.7197 N.ar      1 <0>        -0.2586
     13 N6          4.4416    3.7986    1.2375 N.1       1 <0>        -0.1909
     14 C1         -4.3524   -1.6937    0.9694 C.3       1 <0>         0.0340
     15 C2         -5.2358   -1.3525   -0.2487 C.3       1 <0>         0.0294
     16 C3         -5.5523   -1.3067    1.8584 C.3       1 <0>         0.0294
     17 C4         -6.4666   -1.6173    0.6501 C.3       1 <0>         0.2523
     18 C5          2.2978   -1.4179   -0.7408 C.3       1 <0>         0.1093
     19 C6         -0.9699    0.0373    0.6970 C.3       1 <0>         0.1335
     20 C7         -2.0864   -0.9119    0.2818 C.2       1 <0>         0.2387
     21 C8          1.9628   -2.5683   -1.6728 C.3       1 <0>        -0.0171
     22 C9          1.1794   -1.1898    0.2337 C.2       1 <0>         0.2417
     23 C10         2.4422   -3.7948   -0.9168 C.3       1 <0>         0.0267
     24 C11         3.5986   -3.2767   -0.0926 C.2       1 <0>         0.2216
     25 C12        -1.3972    1.4833    0.6020 C.ar      1 <0>         0.0004
     26 C13         0.3476    0.5492   -1.3459 C.ar      1 <0>         0.0583
     27 C14         4.3538   -0.9779    0.6666 C.ar      1 <0>         0.1293
     28 C15        -0.8458    2.4653    1.4250 C.ar      1 <0>         0.0464
     29 C16        -2.3688    1.8262   -0.3382 C.ar      1 <0>        -0.0549
     30 C17         0.9820    1.7860   -1.3089 C.ar      1 <0>        -0.0020
     31 C18         4.0607    0.3753    0.6121 C.ar      1 <0>        -0.0039
     32 C19        -0.1390    0.1060   -2.5652 C.ar      1 <0>         0.0492
     33 C20        -1.2660    3.7902    1.3078 C.ar      1 <0>        -0.0431
     34 C21        -2.7891    3.1512   -0.4554 C.ar      1 <0>        -0.0613
     35 C22        -2.2377    4.1333    0.3675 C.ar      1 <0>        -0.0604
     36 C23         4.9074    1.2520    1.2815 C.ar      1 <0>         0.0565
     37 C24         1.1086    2.5314   -2.4760 C.ar      1 <0>         0.1432
     38 C25         6.2119   -0.6142    1.9682 C.ar      1 <0>         0.0309
     39 C26         6.0057    0.7558    1.9749 C.ar      1 <0>        -0.0261
     40 C27         0.5879    1.9995   -3.6448 C.ar      1 <0>         0.0628
     41 C28         4.6505    2.6572    1.2572 C.1       1 <0>         0.0993
     42 H1         -4.1017   -2.7600    1.0382 H         1 <0>         0.0502
     43 H2         -5.1303   -2.0249   -1.1044 H         1 <0>         0.0341
     44 H3         -5.5849   -0.2561    2.1697 H         1 <0>         0.0341
     45 H4         -5.1680   -0.3163   -0.6000 H         1 <0>         0.0341
     46 H5         -5.7069   -1.9413    2.7352 H         1 <0>         0.0341
     47 H6         -3.1368   -0.1976    1.9169 H         1 <0>         0.1490
     48 H7          2.5548   -0.5500   -1.3487 H         1 <0>         0.0601
     49 H8         -0.7305   -0.2376    1.7316 H         1 <0>         0.0652
     50 H9          2.5365   -2.4716   -2.6034 H         1 <0>         0.0293
     51 H10         0.9046   -2.6467   -1.9371 H         1 <0>         0.0293
     52 H11         2.7722   -4.5844   -1.5966 H         1 <0>         0.0359
     53 H12         1.6728   -4.1842   -0.2428 H         1 <0>         0.0359
     54 H13        -2.8102    1.1004   -1.0146 H         1 <0>         0.0621
     55 H14         1.3976    2.1809   -0.3878 H         1 <0>         0.0666
     56 H15         3.2125    0.7871    0.0871 H         1 <0>         0.0665
     57 H16        -0.6375   -0.8512   -2.6690 H         1 <0>         0.0848
     58 H17        -0.8455    4.5674    1.9409 H         1 <0>         0.0632
     59 H18        -3.5416    3.4194   -1.1912 H         1 <0>         0.0618
     60 H19        -2.5638    5.1650    0.2749 H         1 <0>         0.0618
     61 H20         7.0542   -1.0519    2.4939 H         1 <0>         0.0830
     62 H21         6.6885    1.4088    2.5089 H         1 <0>         0.0645
     63 H22         0.6609    2.5416   -4.5817 H         1 <0>         0.0859
@<TRIPOS>BOND
     1    1   28 1
     2    2   17 1
     3    3   17 1
     4    4   37 1
     5    5   20 2
     6    6   22 2
     7    7   24 2
     8    8   14 1
     9    8   20 am
    10    8   47 1
    11    9   19 1
    12    9   22 am
    13    9   26 1
    14   10   18 1
    15   10   24 am
    16   10   27 1
    17   11   27 ar
    18   11   38 ar
    19   12   32 ar
    20   12   40 ar
    21   13   41 3
    22   14   15 1
    23   14   16 1
    24   14   42 1
    25   15   17 1
    26   15   43 1
    27   15   45 1
    28   16   17 1
    29   16   44 1
    30   16   46 1
    31   18   21 1
    32   18   22 1
    33   18   48 1
    34   19   20 1
    35   19   25 1
    36   19   49 1
    37   21   23 1
    38   21   50 1
    39   21   51 1
    40   23   24 1
    41   23   52 1
    42   23   53 1
    43   25   28 ar
    44   25   29 ar
    45   26   30 ar
    46   26   32 ar
    47   27   31 ar
    48   28   33 ar
    49   29   34 ar
    50   29   54 1
    51   30   37 ar
    52   30   55 1
    53   31   36 ar
    54   31   56 1
    55   32   57 1
    56   33   35 ar
    57   33   58 1
    58   34   35 ar
    59   34   59 1
    60   35   60 1
    61   36   39 ar
    62   36   41 1
    63   37   40 ar
    64   38   39 ar
    65   38   61 1
    66   39   62 1
    67   40   63 1
