@<TRIPOS>MOLECULE
DB14109
   35    36     0     0     0
SMALL
USER_CHARGES

@<TRIPOS>ATOM
      1 O1          0.8014    0.7989   -0.8232 O.3       1 <0>        -0.3313
      2 O2          3.6145   -2.1616   -0.2135 O.3       1 <0>        -0.3864
      3 O3          3.8034    0.2989    1.2569 O.3       1 <0>        -0.3865
      4 O4         -0.5316   -0.7491    0.3796 O.3       1 <0>        -0.4608
      5 O5          0.8714   -2.8754   -0.7974 O.3       1 <0>        -0.3829
      6 O6          1.0018    3.3384    0.1584 O.3       1 <0>        -0.3924
      7 O7         -5.8444    0.6720    0.0115 O.3       1 <0>        -0.5068
      8 C1          2.4892   -1.3458    0.1202 C.3       1 <0>         0.1152
      9 C2          2.9432    0.1152    0.1348 C.3       1 <0>         0.1120
     10 C3          1.3927   -1.5570   -0.9219 C.3       1 <0>         0.1454
     11 C4          1.7434    1.0684    0.2214 C.3       1 <0>         0.1140
     12 C5          0.2709   -0.5272   -0.7785 C.3       1 <0>         0.2308
     13 C6          2.1609    2.5295    0.0791 C.3       1 <0>         0.0731
     14 C7         -1.8507   -0.3963    0.2885 C.ar      1 <0>         0.1242
     15 C8         -2.1949    0.9246    0.0190 C.ar      1 <0>        -0.0164
     16 C9         -2.8371   -1.3612    0.4657 C.ar      1 <0>        -0.0164
     17 C10        -3.5394    1.2843   -0.0741 C.ar      1 <0>        -0.0167
     18 C11        -4.1816   -1.0016    0.3724 C.ar      1 <0>        -0.0167
     19 C12        -4.5327    0.3212    0.1025 C.ar      1 <0>         0.1171
     20 H1          2.1503   -1.6676    1.1126 H         1 <0>         0.0648
     21 H2          3.5263    0.3285   -0.7703 H         1 <0>         0.0647
     22 H3          1.8385   -1.4766   -1.9211 H         1 <0>         0.0683
     23 H4          1.2341    0.9591    1.1882 H         1 <0>         0.0647
     24 H5         -0.3690   -0.6417   -1.6646 H         1 <0>         0.1084
     25 H6          2.6366    2.7188   -0.8890 H         1 <0>         0.0584
     26 H7          2.8490    2.8302    0.8743 H         1 <0>         0.0584
     27 H8          4.2426   -2.1147    0.5267 H         1 <0>         0.2100
     28 H9          4.6175   -0.2055    1.0918 H         1 <0>         0.2100
     29 H10         0.4288   -2.9387    0.0663 H         1 <0>         0.2102
     30 H11         0.4206    3.0906   -0.5807 H         1 <0>         0.2095
     31 H12        -1.4421    1.6953   -0.1029 H         1 <0>         0.0655
     32 H13        -2.5678   -2.3925    0.6754 H         1 <0>         0.0655
     33 H14        -3.8070    2.3171   -0.2804 H         1 <0>         0.0655
     34 H15        -4.9460   -1.7614    0.5119 H         1 <0>         0.0655
     35 H16        -6.3929   -0.1173    0.1605 H         1 <0>         0.2921
@<TRIPOS>BOND
     1    1   11 1
     2    1   12 1
     3    2    8 1
     4    2   27 1
     5    3    9 1
     6    3   28 1
     7    4   12 1
     8    4   14 1
     9    5   10 1
    10    5   29 1
    11    6   13 1
    12    6   30 1
    13    7   19 1
    14    7   35 1
    15    8    9 1
    16    8   10 1
    17    8   20 1
    18    9   11 1
    19    9   21 1
    20   10   12 1
    21   10   22 1
    22   11   13 1
    23   11   23 1
    24   12   24 1
    25   13   25 1
    26   13   26 1
    27   14   15 ar
    28   14   16 ar
    29   15   17 ar
    30   15   31 1
    31   16   18 ar
    32   16   32 1
    33   17   19 ar
    34   17   33 1
    35   18   19 ar
    36   18   34 1
