@<TRIPOS>MOLECULE
DB14656
   28    28     0     0     0
SMALL
USER_CHARGES

@<TRIPOS>ATOM
      1 Cl1        -6.4730   -0.8380    0.9467 Cl        1 <0>        -0.0835
      2 O1         -1.0586    0.7736   -0.6549 O.3       1 <0>        -0.4893
      3 O2          1.5828    1.3212   -1.3944 O.3       1 <0>        -0.3850
      4 O3          3.6487    0.2469    0.1935 O.3       1 <0>        -0.4478
      5 O4          4.7786   -1.7473    0.4083 O.2       1 <0>        -0.2267
      6 N1          5.8658    0.2694    0.6031 N.am      1 <0>        -0.2950
      7 C1          1.2916    0.5256   -0.2430 C.3       1 <0>         0.1231
      8 C2         -0.0275   -0.1944   -0.4905 C.3       1 <0>         0.1186
      9 C3          2.4337   -0.4611   -0.0291 C.3       1 <0>         0.1231
     10 C4         -2.3213    0.3978   -0.2812 C.ar      1 <0>         0.1207
     11 C5         -2.6980   -0.9377   -0.3725 C.ar      1 <0>        -0.0186
     12 C6         -3.2153    1.3551    0.1860 C.ar      1 <0>        -0.0186
     13 C7         -3.9842   -1.3205    0.0080 C.ar      1 <0>        -0.0399
     14 C8         -4.5016    0.9725    0.5665 C.ar      1 <0>        -0.0399
     15 C9         -4.8861   -0.3655    0.4775 C.ar      1 <0>         0.0412
     16 C10         4.7614   -0.5209    0.4013 C.2       1 <0>         0.3977
     17 H1          1.2152    1.2168    0.6038 H         1 <0>         0.0662
     18 H2         -0.2200   -0.8495    0.3687 H         1 <0>         0.0724
     19 H3          0.0328   -0.7906   -1.4088 H         1 <0>         0.0724
     20 H4          2.5571   -1.0870   -0.9216 H         1 <0>         0.0725
     21 H5          2.2214   -1.0998    0.8362 H         1 <0>         0.0725
     22 H6          0.8379    1.9336   -1.5207 H         1 <0>         0.2101
     23 H7         -2.0372   -1.7073   -0.7593 H         1 <0>         0.0654
     24 H8         -2.9197    2.3981    0.2569 H         1 <0>         0.0654
     25 H9         -4.2726   -2.3656   -0.0725 H         1 <0>         0.0633
     26 H10        -5.1936    1.7276    0.9305 H         1 <0>         0.0633
     27 H11         5.8009    1.2817    0.5881 H         1 <0>         0.1482
     28 H12         6.7806   -0.1345    0.7735 H         1 <0>         0.1482
@<TRIPOS>BOND
     1    1   15 1
     2    2    8 1
     3    2   10 1
     4    3    7 1
     5    3   22 1
     6    4    9 1
     7    4   16 1
     8    5   16 2
     9    6   16 am
    10    6   27 1
    11    6   28 1
    12    7    8 1
    13    7    9 1
    14    7   17 1
    15    8   18 1
    16    8   19 1
    17    9   20 1
    18    9   21 1
    19   10   11 ar
    20   10   12 ar
    21   11   13 ar
    22   11   23 1
    23   12   14 ar
    24   12   24 1
    25   13   15 ar
    26   13   25 1
    27   14   15 ar
    28   14   26 1
