@<TRIPOS>MOLECULE
DB14650
   33    34     0     0     0
SMALL
USER_CHARGES

@<TRIPOS>ATOM
      1 P1          3.4844   -1.1251   -0.4216 P.3       1 <0>         0.5280
      2 P2         -4.0527   -0.4569   -0.4683 P.3       1 <0>         0.5280
      3 O1          2.3765   -0.8154    0.7124 O.3       1 <0>        -0.4031
      4 O2         -2.8598    0.6187   -0.2883 O.3       1 <0>        -0.4034
      5 O3          3.7789    0.3169   -1.0928 O.3       1 <0>        -0.2930
      6 O4          4.8182   -1.3962    0.4536 O.3       1 <0>        -0.2930
      7 O5         -4.2211   -1.1114    1.0012 O.3       1 <0>        -0.2930
      8 O6         -5.3621    0.4852   -0.5972 O.3       1 <0>        -0.2930
      9 O7          3.1346   -2.2283   -1.3776 O.2       1 <0>        -0.2156
     10 O8         -3.8750   -1.4299   -1.5975 O.2       1 <0>        -0.2156
     11 C1          0.7627    0.9367    0.3600 C.ar      1 <0>         0.0281
     12 C2         -0.5785    1.3085    0.1034 C.ar      1 <0>         0.0279
     13 C3          1.0893   -0.4251    0.4663 C.ar      1 <0>         0.1429
     14 C4          0.1078   -1.4062    0.3219 C.ar      1 <0>        -0.0042
     15 C5         -1.5534    0.3077   -0.0398 C.ar      1 <0>         0.1402
     16 C6         -1.2111   -1.0405    0.0690 C.ar      1 <0>        -0.0124
     17 C7          1.7375    1.9375    0.5028 C.ar      1 <0>        -0.0504
     18 C8         -0.9053    2.6702   -0.0032 C.ar      1 <0>        -0.0504
     19 C9          0.4512   -2.8554    0.4342 C.3       1 <0>        -0.0361
     20 C10         1.3949    3.2856    0.3942 C.ar      1 <0>        -0.0610
     21 C11         0.0760    3.6513    0.1417 C.ar      1 <0>        -0.0611
     22 H1         -1.9400   -1.8357   -0.0336 H         1 <0>         0.0658
     23 H2          2.7710    1.6977    0.7367 H         1 <0>         0.0625
     24 H3         -1.9263    2.9898   -0.1994 H         1 <0>         0.0625
     25 H4          1.2717   -3.0284    1.1381 H         1 <0>         0.0279
     26 H5         -0.4017   -3.4327    0.8086 H         1 <0>         0.0279
     27 H6          0.7300   -3.2547   -0.5454 H         1 <0>         0.0279
     28 H7          2.1568    4.0503    0.5151 H         1 <0>         0.0618
     29 H8         -0.1902    4.7010    0.0593 H         1 <0>         0.0618
     30 H9          4.3918    0.3684   -1.8568 H         1 <0>         0.2231
     31 H10         5.6282   -1.7104   -0.0021 H         1 <0>         0.2231
     32 H11        -4.8606   -1.8451    1.1231 H         1 <0>         0.2231
     33 H12        -6.2235    0.0716   -0.8181 H         1 <0>         0.2231
@<TRIPOS>BOND
     1    1    3 1
     2    1    5 1
     3    1    6 1
     4    1    9 2
     5    2    4 1
     6    2    7 1
     7    2    8 1
     8    2   10 2
     9    3   13 1
    10    4   15 1
    11    5   30 1
    12    6   31 1
    13    7   32 1
    14    8   33 1
    15   11   12 ar
    16   11   13 ar
    17   11   17 ar
    18   12   15 ar
    19   12   18 ar
    20   13   14 ar
    21   14   16 ar
    22   14   19 1
    23   15   16 ar
    24   16   22 1
    25   17   20 ar
    26   17   23 1
    27   18   21 ar
    28   18   24 1
    29   19   25 1
    30   19   26 1
    31   19   27 1
    32   20   21 ar
    33   20   28 1
    34   21   29 1
