@<TRIPOS>MOLECULE
DB14202
   28    30     0     0     0
SMALL
USER_CHARGES

@<TRIPOS>ATOM
      1 S1          1.1046    1.6565    1.5065 S.3       1 <0>        -0.0135
      2 S2         -1.5740    2.2665    0.2228 S.3       1 <0>        -0.0598
      3 O1          3.8310   -0.7326   -1.1761 O.3       1 <0>        -0.3772
      4 N1          1.9867    0.5736    0.5896 N.3       1 <0>        -0.2394
      5 N2         -0.9382   -0.0416    1.1822 N.2       1 <0>        -0.2315
      6 C1          1.8489    0.6315   -0.8768 C.3       1 <0>         0.0334
      7 C2          3.4013    0.3613    0.9442 C.3       1 <0>         0.0334
      8 C3          2.4572   -0.6028   -1.5350 C.3       1 <0>         0.0613
      9 C4          3.9668   -0.8661    0.2370 C.3       1 <0>         0.0613
     10 C5         -0.5139    1.1766    0.9876 C.2       1 <0>         0.1506
     11 C6         -2.7520    1.0117    0.1191 C.ar      1 <0>         0.0401
     12 C7         -2.2291   -0.1542    0.6866 C.ar      1 <0>         0.0795
     13 C8         -4.0455    1.0558   -0.4253 C.ar      1 <0>        -0.0459
     14 C9         -3.0313   -1.3156    0.7088 C.ar      1 <0>        -0.0352
     15 C10        -4.8187   -0.1074   -0.3905 C.ar      1 <0>        -0.0606
     16 C11        -4.3201   -1.2789    0.1687 C.ar      1 <0>        -0.0597
     17 H1          2.3520    1.5325   -1.2530 H         1 <0>         0.0459
     18 H2          0.8041    0.6838   -1.1983 H         1 <0>         0.0459
     19 H3          3.5085    0.2143    2.0259 H         1 <0>         0.0459
     20 H4          3.9861    1.2489    0.6686 H         1 <0>         0.0459
     21 H5          1.9160   -1.5157   -1.2575 H         1 <0>         0.0573
     22 H6          2.4063   -0.5068   -2.6244 H         1 <0>         0.0573
     23 H7          5.0336   -0.9662    0.4611 H         1 <0>         0.0573
     24 H8          3.4713   -1.7868    0.5688 H         1 <0>         0.0573
     25 H9         -4.4413    1.9668   -0.8635 H         1 <0>         0.0629
     26 H10        -2.6518   -2.2362    1.1430 H         1 <0>         0.0639
     27 H11        -5.8227   -0.0948   -0.8065 H         1 <0>         0.0618
     28 H12        -4.9359   -2.1740    0.1867 H         1 <0>         0.0618
@<TRIPOS>BOND
     1    1    4 1
     2    1   10 1
     3    2   10 1
     4    2   11 1
     5    3    8 1
     6    3    9 1
     7    4    6 1
     8    4    7 1
     9    5   10 2
    10    5   12 1
    11    6    8 1
    12    6   17 1
    13    6   18 1
    14    7    9 1
    15    7   19 1
    16    7   20 1
    17    8   21 1
    18    8   22 1
    19    9   23 1
    20    9   24 1
    21   11   12 ar
    22   11   13 ar
    23   12   14 ar
    24   13   15 ar
    25   13   25 1
    26   14   16 ar
    27   14   26 1
    28   15   16 ar
    29   15   27 1
    30   16   28 1
