@<TRIPOS>MOLECULE
DB14627
   49    52     0     0     0
SMALL
USER_CHARGES

@<TRIPOS>ATOM
      1 O1         -0.4058   -1.2391    3.0851 O.2       1 <0>        -0.2738
      2 O2          4.6094    1.9616    0.5605 O.3       1 <0>        -0.4260
      3 O3         -4.5964    1.6887   -0.8588 O.3       1 <0>        -0.4260
      4 O4          3.6434    3.2465   -1.1410 O.2       1 <0>        -0.2507
      5 O5         -4.2184    3.1098    0.9625 O.2       1 <0>        -0.2507
      6 N1         -0.1535   -3.2671    1.9399 N.am      1 <0>        -0.2839
      7 C1         -0.0205   -1.2619    0.6201 C.3       1 <0>         0.1236
      8 C2          0.1434   -2.5407   -0.2020 C.ar      1 <0>        -0.0026
      9 C3          1.2041   -0.4096    0.6044 C.ar      1 <0>        -0.0235
     10 C4         -1.2308   -0.4817    0.2289 C.ar      1 <0>        -0.0235
     11 C5         -0.2233   -1.8771    2.0577 C.2       1 <0>         0.2366
     12 C6          0.0561   -3.6586    0.6262 C.ar      1 <0>         0.0383
     13 C7          0.3363   -2.7071   -1.5662 C.ar      1 <0>        -0.0552
     14 C8          0.1627   -4.9523    0.1533 C.ar      1 <0>        -0.0402
     15 C9          1.2815    0.7135    1.4270 C.ar      1 <0>        -0.0535
     16 C10        -1.1120    0.5929   -0.6515 C.ar      1 <0>        -0.0535
     17 C11         2.2699   -0.7370   -0.2330 C.ar      1 <0>        -0.0535
     18 C12        -2.4793   -0.8282    0.7444 C.ar      1 <0>        -0.0535
     19 C13         0.4472   -4.0069   -2.0706 C.ar      1 <0>        -0.0613
     20 C14         0.3619   -5.1202   -1.2173 C.ar      1 <0>        -0.0600
     21 C15         2.4262    1.5105    1.4121 C.ar      1 <0>        -0.0189
     22 C16        -2.2435    1.3223   -1.0170 C.ar      1 <0>        -0.0189
     23 C17         3.4146    0.0598   -0.2480 C.ar      1 <0>        -0.0189
     24 C18        -3.6107   -0.0988    0.3789 C.ar      1 <0>        -0.0189
     25 C19         3.4929    1.1837    0.5747 C.ar      1 <0>         0.1316
     26 C20        -3.4929    0.9765   -0.5020 C.ar      1 <0>         0.1316
     27 C21         4.5689    3.0068   -0.3770 C.2       1 <0>         0.3092
     28 C22        -4.8720    2.7796   -0.0180 C.2       1 <0>         0.3092
     29 C23         5.8391    3.8022   -0.3150 C.3       1 <0>         0.0336
     30 C24        -6.1009    3.4965   -0.4929 C.3       1 <0>         0.0336
     31 H1         -0.2500   -3.9183    2.7101 H         1 <0>         0.1549
     32 H2          0.3814   -1.8592   -2.2420 H         1 <0>         0.0621
     33 H3          0.0923   -5.8091    0.8135 H         1 <0>         0.0636
     34 H4          0.4638    0.9973    2.0839 H         1 <0>         0.0622
     35 H5         -0.1690    0.8790   -1.1076 H         1 <0>         0.0622
     36 H6          2.3260   -1.6058   -0.8707 H         1 <0>         0.0622
     37 H7         -2.6226   -1.6718    1.4125 H         1 <0>         0.0622
     38 H8          0.5956   -4.1592   -3.1363 H         1 <0>         0.0618
     39 H9          0.4491   -6.1210   -1.6315 H         1 <0>         0.0618
     40 H10         2.4801    2.3854    2.0543 H         1 <0>         0.0654
     41 H11        -2.1464    2.1537   -1.7100 H         1 <0>         0.0654
     42 H12         4.2470   -0.2047   -0.8948 H         1 <0>         0.0654
     43 H13        -4.5820   -0.3767    0.7789 H         1 <0>         0.0654
     44 H14         5.9559    4.2335    0.6822 H         1 <0>         0.0342
     45 H15         5.7937    4.6157   -1.0446 H         1 <0>         0.0342
     46 H16         6.6888    3.1600   -0.5593 H         1 <0>         0.0342
     47 H17        -5.9411    3.8705   -1.5071 H         1 <0>         0.0342
     48 H18        -6.3023    4.3465    0.1652 H         1 <0>         0.0342
     49 H19        -6.9580    2.8195   -0.4620 H         1 <0>         0.0342
@<TRIPOS>BOND
     1    1   11 2
     2    2   25 1
     3    2   27 1
     4    3   26 1
     5    3   28 1
     6    4   27 2
     7    5   28 2
     8    6   11 am
     9    6   12 1
    10    6   31 1
    11    7    8 1
    12    7    9 1
    13    7   10 1
    14    7   11 1
    15    8   12 ar
    16    8   13 ar
    17    9   15 ar
    18    9   17 ar
    19   10   16 ar
    20   10   18 ar
    21   12   14 ar
    22   13   19 ar
    23   13   32 1
    24   14   20 ar
    25   14   33 1
    26   15   21 ar
    27   15   34 1
    28   16   22 ar
    29   16   35 1
    30   17   23 ar
    31   17   36 1
    32   18   24 ar
    33   18   37 1
    34   19   20 ar
    35   19   38 1
    36   20   39 1
    37   21   25 ar
    38   21   40 1
    39   22   26 ar
    40   22   41 1
    41   23   25 ar
    42   23   42 1
    43   24   26 ar
    44   24   43 1
    45   27   29 1
    46   28   30 1
    47   29   44 1
    48   29   45 1
    49   29   46 1
    50   30   47 1
    51   30   48 1
    52   30   49 1
