@<TRIPOS>MOLECULE
DB14575
   33    35     0     0     0
SMALL
USER_CHARGES

@<TRIPOS>ATOM
      1 O1         -0.4313   -1.0550   -2.3332 O.3       1 <0>        -0.3868
      2 O2          0.8252    2.9168   -1.5343 O.2       1 <0>        -0.2521
      3 N1         -0.0064    1.0377   -0.3832 N.am      1 <0>        -0.2240
      4 N2         -1.4157    2.6226   -1.4456 N.am      1 <0>        -0.3126
      5 C1         -0.5589   -1.7341   -1.0871 C.3       1 <0>         0.0859
      6 C2          0.8037   -2.0031   -0.4595 C.3       1 <0>         0.0044
      7 C3         -1.4317   -0.9601   -0.1421 C.ar      1 <0>         0.0030
      8 C4          1.6363   -0.8359    0.0358 C.ar      1 <0>        -0.0228
      9 C5         -1.1365    0.3711    0.1824 C.ar      1 <0>         0.0484
     10 C6          1.2824    0.5320    0.0237 C.ar      1 <0>         0.0460
     11 C7         -2.5592   -1.5718    0.4288 C.ar      1 <0>        -0.0543
     12 C8          2.9206   -1.2032    0.5064 C.ar      1 <0>        -0.0567
     13 C9         -1.9762    1.0717    1.0665 C.ar      1 <0>        -0.0395
     14 C10         2.2393    1.4680    0.4811 C.ar      1 <0>        -0.0396
     15 C11        -0.1233    2.2463   -1.1158 C.2       1 <0>         0.3083
     16 C12        -3.3848   -0.8693    1.3062 C.ar      1 <0>        -0.0613
     17 C13         3.8434   -0.2597    0.9475 C.ar      1 <0>        -0.0614
     18 C14        -3.0933    0.4525    1.6251 C.ar      1 <0>        -0.0600
     19 C15         3.5012    1.0807    0.9334 C.ar      1 <0>        -0.0600
     20 H1         -1.0298   -2.6976   -1.3180 H         1 <0>         0.0647
     21 H2          1.4104   -2.5383   -1.2030 H         1 <0>         0.0342
     22 H3          0.6605   -2.6799    0.3948 H         1 <0>         0.0342
     23 H4         -2.8032   -2.6047    0.1922 H         1 <0>         0.0622
     24 H5          3.2116   -2.2526    0.5188 H         1 <0>         0.0621
     25 H6         -1.7574    2.1014    1.3400 H         1 <0>         0.0636
     26 H7          2.0002    2.5277    0.5422 H         1 <0>         0.0636
     27 H8         -4.2536   -1.3550    1.7405 H         1 <0>         0.0618
     28 H9          0.1463   -1.5910   -2.9029 H         1 <0>         0.2102
     29 H10         4.8205   -0.5737    1.3003 H         1 <0>         0.0618
     30 H11        -3.7326    1.0010    2.3105 H         1 <0>         0.0618
     31 H12         4.2053    1.8284    1.2859 H         1 <0>         0.0618
     32 H13        -1.5785    3.4697   -1.9804 H         1 <0>         0.1465
     33 H14        -2.2349    2.0574   -1.2571 H         1 <0>         0.1465
@<TRIPOS>BOND
     1    1    5 1
     2    1   28 1
     3    2   15 2
     4    3    9 1
     5    3   10 1
     6    3   15 am
     7    4   15 am
     8    4   32 1
     9    4   33 1
    10    5    6 1
    11    5    7 1
    12    5   20 1
    13    6    8 1
    14    6   21 1
    15    6   22 1
    16    7    9 ar
    17    7   11 ar
    18    8   10 ar
    19    8   12 ar
    20    9   13 ar
    21   10   14 ar
    22   11   16 ar
    23   11   23 1
    24   12   17 ar
    25   12   24 1
    26   13   18 ar
    27   13   25 1
    28   14   19 ar
    29   14   26 1
    30   16   18 ar
    31   16   27 1
    32   17   19 ar
    33   17   29 1
    34   18   30 1
    35   19   31 1
