@<TRIPOS>MOLECULE
DB14186
   20    20     0     0     0
SMALL
USER_CHARGES

@<TRIPOS>ATOM
      1 O1         -4.0048   -0.7290   -0.5426 O.3       1 <0>        -0.3910
      2 C1          0.5635    0.2846   -0.0292 C.ar      1 <0>        -0.0253
      3 C2         -0.8546    0.6078   -0.0388 C.2       1 <0>        -0.0564
      4 C3          0.9751   -1.0482   -0.0296 C.ar      1 <0>        -0.0546
      5 C4          1.5121    1.3074   -0.0193 C.ar      1 <0>        -0.0546
      6 C5          2.3349   -1.3584   -0.0202 C.ar      1 <0>        -0.0612
      7 C6          2.8720    0.9972   -0.0099 C.ar      1 <0>        -0.0612
      8 C7         -1.8588   -0.2215    0.3265 C.2       1 <0>        -0.0584
      9 C8          3.2834   -0.3358   -0.0103 C.ar      1 <0>        -0.0617
     10 C9         -3.3038    0.1616    0.3142 C.3       1 <0>         0.0627
     11 H1         -1.1092    1.6156   -0.3608 H         1 <0>         0.0621
     12 H2          0.2737   -1.8769   -0.0577 H         1 <0>         0.0623
     13 H3          1.2106    2.3521   -0.0175 H         1 <0>         0.0623
     14 H4          2.6560   -2.3960   -0.0252 H         1 <0>         0.0618
     15 H5          3.6108    1.7931   -0.0022 H         1 <0>         0.0618
     16 H6         -1.6536   -1.2264    0.6840 H         1 <0>         0.0595
     17 H7          4.3423   -0.5772   -0.0041 H         1 <0>         0.0618
     18 H8         -3.7228    0.0703    1.3206 H         1 <0>         0.0601
     19 H9         -3.4682    1.1860   -0.0346 H         1 <0>         0.0601
     20 H10        -3.6585   -0.6062   -1.4432 H         1 <0>         0.2098
@<TRIPOS>BOND
     1    1   10 1
     2    1   20 1
     3    2    3 1
     4    2    4 ar
     5    2    5 ar
     6    3    8 2
     7    3   11 1
     8    4    6 ar
     9    4   12 1
    10    5    7 ar
    11    5   13 1
    12    6    9 ar
    13    6   14 1
    14    7    9 ar
    15    7   15 1
    16    8   10 1
    17    8   16 1
    18    9   17 1
    19   10   18 1
    20   10   19 1
