@<TRIPOS>MOLECULE
DB14544
   70    73     0     0     0
SMALL
USER_CHARGES

@<TRIPOS>ATOM
      1 O1         -2.2868    0.3262    0.0145 O.3       1 <0>        -0.4497
      2 O2          2.4320    1.8921    1.5915 O.3       1 <0>        -0.3915
      3 O3         -3.0104    3.4577   -0.5847 O.2       1 <0>        -0.2907
      4 O4         -3.6687    3.2825    2.0867 O.3       1 <0>        -0.3874
      5 O5          6.2158   -3.9923    0.6724 O.2       1 <0>        -0.2927
      6 O6         -4.2615    0.9674   -0.9915 O.2       1 <0>        -0.2508
      7 C1         -0.1403    1.5198   -0.1023 C.3       1 <0>         0.0203
      8 C2          0.3904    0.5309   -1.1628 C.3       1 <0>        -0.0282
      9 C3          1.9153    0.3492   -1.1256 C.3       1 <0>        -0.0313
     10 C4          2.3241   -0.1928    0.2827 C.3       1 <0>        -0.0028
     11 C5         -1.6497    1.5043   -0.4706 C.3       1 <0>         0.1785
     12 C6          0.2231    0.9502    1.2842 C.3       1 <0>        -0.0168
     13 C7          3.8698   -0.5189    0.3929 C.3       1 <0>        -0.0049
     14 C8          1.7328    0.6642    1.4452 C.3       1 <0>         0.0597
     15 C9         -0.2635    1.0129   -2.4551 C.3       1 <0>        -0.0453
     16 C10        -1.6633    1.4918   -2.0166 C.3       1 <0>        -0.0049
     17 C11         2.3636   -0.6273   -2.2242 C.3       1 <0>        -0.0459
     18 C12         0.4210    2.9590   -0.2705 C.3       1 <0>        -0.0551
     19 C13         4.2885   -1.3853   -0.8028 C.2       1 <0>        -0.0600
     20 C14         3.8593   -0.8979   -2.1650 C.3       1 <0>        -0.0305
     21 C15         4.1047   -1.2960    1.7209 C.3       1 <0>        -0.0366
     22 C16         4.7692    0.7379    0.3814 C.3       1 <0>        -0.0555
     23 C17        -2.4302    2.6380    0.1257 C.2       1 <0>         0.2022
     24 C18         5.4443   -2.0127    1.7774 C.3       1 <0>         0.0107
     25 C19         5.0275   -2.5027   -0.7017 C.2       1 <0>        -0.0194
     26 C20         5.5890   -2.9375    0.5979 C.2       1 <0>         0.1561
     27 C21        -2.4586    2.7102    1.6375 C.3       1 <0>         0.1063
     28 C22        -3.6060    0.1808   -0.3221 C.2       1 <0>         0.3080
     29 C23        -4.1274   -1.1114    0.2642 C.3       1 <0>         0.0450
     30 C24        -5.6059   -1.3287   -0.0535 C.3       1 <0>        -0.0432
     31 C25        -6.1068   -2.6569    0.5121 C.3       1 <0>        -0.0554
     32 C26        -7.5677   -2.8945    0.1649 C.3       1 <0>        -0.0653
     33 H1         -0.0420   -0.4629   -0.9585 H         1 <0>         0.0310
     34 H2          2.4090    1.3082   -1.3119 H         1 <0>         0.0307
     35 H3          1.8104   -1.1653    0.3705 H         1 <0>         0.0337
     36 H4         -0.0799    1.6423    2.0749 H         1 <0>         0.0297
     37 H5         -0.3120    0.0088    1.4585 H         1 <0>         0.0297
     38 H6          1.8627    0.1195    2.3873 H         1 <0>         0.0596
     39 H7          0.3005    1.8372   -2.9061 H         1 <0>         0.0270
     40 H8         -0.3344    0.2138   -3.2003 H         1 <0>         0.0270
     41 H9         -2.3958    0.8088   -2.4564 H         1 <0>         0.0308
     42 H10        -1.8401    2.4797   -2.4558 H         1 <0>         0.0308
     43 H11         1.8171   -1.5750   -2.1315 H         1 <0>         0.0271
     44 H12         2.1213   -0.2185   -3.2122 H         1 <0>         0.0271
     45 H13         0.1631    3.5884    0.5872 H         1 <0>         0.0237
     46 H14         1.5084    2.9856   -0.3634 H         1 <0>         0.0237
     47 H15         0.0295    3.4600   -1.1621 H         1 <0>         0.0237
     48 H16         4.1167   -1.6228   -2.9471 H         1 <0>         0.0310
     49 H17         4.4090    0.0203   -2.4062 H         1 <0>         0.0310
     50 H18         3.3138   -2.0484    1.8500 H         1 <0>         0.0278
     51 H19         4.0322   -0.6207    2.5820 H         1 <0>         0.0278
     52 H20         4.4778    1.4491   -0.3976 H         1 <0>         0.0238
     53 H21         4.7485    1.2649    1.3402 H         1 <0>         0.0238
     54 H22         5.8195    0.4791    0.1985 H         1 <0>         0.0238
     55 H23         5.4948   -2.6087    2.6954 H         1 <0>         0.0345
     56 H24         6.2833   -1.3099    1.7803 H         1 <0>         0.0345
     57 H25         2.0609    2.3560    2.3611 H         1 <0>         0.2098
     58 H26         5.2948   -3.0944   -1.5707 H         1 <0>         0.0652
     59 H27        -2.3815    1.7202    2.0914 H         1 <0>         0.0638
     60 H28        -1.6369    3.3384    1.9867 H         1 <0>         0.0638
     61 H29        -3.9842   -1.0768    1.3500 H         1 <0>         0.0377
     62 H30        -3.5339   -1.9344   -0.1491 H         1 <0>         0.0377
     63 H31        -4.3879    2.6750    1.8429 H         1 <0>         0.2100
     64 H32        -6.1984   -0.5020    0.3583 H         1 <0>         0.0270
     65 H33        -5.7550   -1.3118   -1.1406 H         1 <0>         0.0270
     66 H34        -5.5054   -3.4824    0.1137 H         1 <0>         0.0263
     67 H35        -5.9884   -2.6654    1.6019 H         1 <0>         0.0263
     68 H36        -7.9057   -3.8488    0.5805 H         1 <0>         0.0230
     69 H37        -7.7134   -2.9256   -0.9196 H         1 <0>         0.0230
     70 H38        -8.2019   -2.1018    0.5744 H         1 <0>         0.0230
@<TRIPOS>BOND
     1    1   11 1
     2    1   28 1
     3    2   14 1
     4    2   57 1
     5    3   23 2
     6    4   27 1
     7    4   63 1
     8    5   26 2
     9    6   28 2
    10    7    8 1
    11    7   11 1
    12    7   12 1
    13    7   18 1
    14    8    9 1
    15    8   15 1
    16    8   33 1
    17    9   10 1
    18    9   17 1
    19    9   34 1
    20   10   13 1
    21   10   14 1
    22   10   35 1
    23   11   16 1
    24   11   23 1
    25   12   14 1
    26   12   36 1
    27   12   37 1
    28   13   19 1
    29   13   21 1
    30   13   22 1
    31   14   38 1
    32   15   16 1
    33   15   39 1
    34   15   40 1
    35   16   41 1
    36   16   42 1
    37   17   20 1
    38   17   43 1
    39   17   44 1
    40   18   45 1
    41   18   46 1
    42   18   47 1
    43   19   20 1
    44   19   25 2
    45   20   48 1
    46   20   49 1
    47   21   24 1
    48   21   50 1
    49   21   51 1
    50   22   52 1
    51   22   53 1
    52   22   54 1
    53   23   27 1
    54   24   26 1
    55   24   55 1
    56   24   56 1
    57   25   26 1
    58   25   58 1
    59   27   59 1
    60   27   60 1
    61   28   29 1
    62   29   30 1
    63   29   61 1
    64   29   62 1
    65   30   31 1
    66   30   64 1
    67   30   65 1
    68   31   32 1
    69   31   66 1
    70   31   67 1
    71   32   68 1
    72   32   69 1
    73   32   70 1
