@<TRIPOS>MOLECULE
DB14083
   49    52     0     0     0
SMALL
USER_CHARGES

@<TRIPOS>ATOM
      1 O1          5.8265    3.3798    1.0621 O.3       1 <0>        -0.3683
      2 O2         -5.7766    3.4278   -1.0561 O.3       1 <0>        -0.3683
      3 O3          4.6264    0.7343   -0.8539 O.3       1 <0>        -0.4893
      4 O4         -4.5969    0.7676    0.8522 O.3       1 <0>        -0.4893
      5 C1          0.0026   -2.3853   -0.0054 C.3       1 <0>         0.0151
      6 C2          6.0738    2.3926    0.0580 C.3       1 <0>         0.1159
      7 C3         -6.0314    2.4397   -0.0549 C.3       1 <0>         0.1159
      8 C4          1.2246   -1.5603   -0.2295 C.ar      1 <0>        -0.0372
      9 C5         -1.2731   -1.5102    0.2323 C.ar      1 <0>        -0.0372
     10 C6          5.2872    3.6296   -0.2423 C.3       1 <0>         0.0776
     11 C7         -5.2352    3.6696    0.2490 C.3       1 <0>         0.0776
     12 C8         -0.1748   -3.3554   -1.2260 C.3       1 <0>        -0.0517
     13 C9          0.0541   -3.3561    1.2342 C.3       1 <0>        -0.0517
     14 C10         5.3902    1.0905    0.2976 C.3       1 <0>         0.1178
     15 C11        -5.3579    1.1330   -0.2981 C.3       1 <0>         0.1178
     16 C12         1.2778   -0.6692   -1.3011 C.ar      1 <0>        -0.0543
     17 C13        -1.2593   -0.6632    1.2953 C.ar      1 <0>        -0.0543
     18 C14         2.3146   -1.6809    0.6325 C.ar      1 <0>        -0.0543
     19 C15        -2.3038   -1.6613   -0.6412 C.ar      1 <0>        -0.0543
     20 C16         3.5116   -0.0189   -0.6489 C.ar      1 <0>         0.1206
     21 C17        -3.4878    0.0064    0.6451 C.ar      1 <0>         0.1206
     22 C18         2.4214    0.1015   -1.5108 C.ar      1 <0>        -0.0197
     23 C19        -2.3969    0.1159    1.5072 C.ar      1 <0>        -0.0197
     24 C20         3.4581   -0.9100    0.4227 C.ar      1 <0>        -0.0197
     25 C21        -3.4413   -0.8821   -0.4291 C.ar      1 <0>        -0.0197
     26 H1          7.0693    2.3003   -0.3527 H         1 <0>         0.0653
     27 H2         -7.0276    2.3539    0.3557 H         1 <0>         0.0653
     28 H3          4.2140    3.5553   -0.3609 H         1 <0>         0.0587
     29 H4          5.7573    4.4023   -0.8366 H         1 <0>         0.0587
     30 H5         -4.1626    3.5866    0.3673 H         1 <0>         0.0587
     31 H6         -5.6992    4.4442    0.8456 H         1 <0>         0.0587
     32 H7         -0.3136   -2.8268   -2.1764 H         1 <0>         0.0241
     33 H8         -1.0121   -4.0505   -1.0885 H         1 <0>         0.0241
     34 H9          0.7251   -3.9730   -1.3495 H         1 <0>         0.0241
     35 H10        -0.8864   -3.9125    1.3378 H         1 <0>         0.0241
     36 H11         0.2171   -2.8281    2.1808 H         1 <0>         0.0241
     37 H12         0.8556   -4.0973    1.1257 H         1 <0>         0.0241
     38 H13         6.1408    0.3142    0.4846 H         1 <0>         0.0723
     39 H14         4.7537    1.1891    1.1870 H         1 <0>         0.0723
     40 H15        -6.1146    0.3630   -0.4873 H         1 <0>         0.0723
     41 H16        -4.7207    1.2292   -1.1873 H         1 <0>         0.0723
     42 H17         0.4404   -0.5547   -1.9838 H         1 <0>         0.0622
     43 H18        -0.4159   -0.5640    1.9692 H         1 <0>         0.0622
     44 H19         2.3279   -2.3632    1.4752 H         1 <0>         0.0622
     45 H20        -2.3283   -2.3325   -1.4879 H         1 <0>         0.0622
     46 H21         2.4570    0.7952   -2.3464 H         1 <0>         0.0654
     47 H22        -2.4267    0.8077    2.3446 H         1 <0>         0.0654
     48 H23         4.2952   -1.0554    1.0992 H         1 <0>         0.0654
     49 H24        -4.2794   -1.0181   -1.1064 H         1 <0>         0.0654
@<TRIPOS>BOND
     1    1    6 1
     2    1   10 1
     3    2    7 1
     4    2   11 1
     5    3   14 1
     6    3   20 1
     7    4   15 1
     8    4   21 1
     9    5    8 1
    10    5    9 1
    11    5   12 1
    12    5   13 1
    13    6   10 1
    14    6   14 1
    15    6   26 1
    16    7   11 1
    17    7   15 1
    18    7   27 1
    19    8   16 ar
    20    8   18 ar
    21    9   17 ar
    22    9   19 ar
    23   10   28 1
    24   10   29 1
    25   11   30 1
    26   11   31 1
    27   12   32 1
    28   12   33 1
    29   12   34 1
    30   13   35 1
    31   13   36 1
    32   13   37 1
    33   14   38 1
    34   14   39 1
    35   15   40 1
    36   15   41 1
    37   16   22 ar
    38   16   42 1
    39   17   23 ar
    40   17   43 1
    41   18   24 ar
    42   18   44 1
    43   19   25 ar
    44   19   45 1
    45   20   22 ar
    46   20   24 ar
    47   21   23 ar
    48   21   25 ar
    49   22   46 1
    50   23   47 1
    51   24   48 1
    52   25   49 1
