@<TRIPOS>MOLECULE
DB14197
   12    12     0     0     0
SMALL
USER_CHARGES

@<TRIPOS>ATOM
      1 Cl1         3.3626   -1.4401   -0.0009 Cl        1 <0>        -0.0742
      2 S1          0.3743   -1.6282    0.0011 S.3       1 <0>         0.0033
      3 O1         -0.2027    2.1171    0.0005 O.2       1 <0>        -0.2671
      4 N1         -0.5487   -0.2038    0.0002 N.am      1 <0>        -0.2808
      5 C1          0.2002    0.9624    0.0009 C.2       1 <0>         0.2591
      6 C2         -1.9924   -0.2684   -0.0003 C.3       1 <0>         0.0221
      7 C3          1.6463    0.6279    0.0000 C.2       1 <0>         0.0298
      8 C4          1.8245   -0.6954    0.0007 C.2       1 <0>         0.0998
      9 H1         -2.4166    0.7395   -0.0009 H         1 <0>         0.0463
     10 H2         -2.3317   -0.7974    0.8953 H         1 <0>         0.0463
     11 H3         -2.3311   -0.7981   -0.8956 H         1 <0>         0.0463
     12 H4          2.4154    1.3846   -0.0008 H         1 <0>         0.0692
@<TRIPOS>BOND
     1    1    8 1
     2    2    4 1
     3    2    8 1
     4    3    5 2
     5    4    5 am
     6    4    6 1
     7    5    7 1
     8    6    9 1
     9    6   10 1
    10    6   11 1
    11    7    8 2
    12    7   12 1
