@<TRIPOS>MOLECULE
DB14646
   57    60     0     0     0
SMALL
USER_CHARGES

@<TRIPOS>ATOM
      1 O1         -2.3037   -0.9484    1.8814 O.3       1 <0>        -0.3804
      2 O2          0.6771    2.4267   -0.9129 O.2       1 <0>        -0.2970
      3 O3         -4.2296   -1.8582   -0.5686 O.2       1 <0>        -0.2907
      4 O4         -5.4006    0.5467    0.0993 O.3       1 <0>        -0.4570
      5 O5          6.5543    2.0442    2.0007 O.2       1 <0>        -0.2879
      6 O6         -5.3062    2.8547    0.1354 O.2       1 <0>        -0.2512
      7 C1         -0.9987   -0.5263   -0.1797 C.3       1 <0>         0.0135
      8 C2          0.1757   -1.3778    0.3621 C.3       1 <0>        -0.0286
      9 C3          1.5374   -0.9611   -0.2146 C.3       1 <0>        -0.0267
     10 C4          1.8143    0.5321    0.1600 C.3       1 <0>         0.0331
     11 C5         -2.1836   -1.2610    0.4969 C.3       1 <0>         0.1329
     12 C6         -0.2968   -2.8136    0.1466 C.3       1 <0>        -0.0463
     13 C7         -0.7641    0.9244    0.2540 C.3       1 <0>         0.0148
     14 C8         -1.8201   -2.7572    0.3796 C.3       1 <0>        -0.0161
     15 C9          3.2189    1.0316   -0.3327 C.3       1 <0>         0.0174
     16 C10         2.6606   -1.8744    0.2986 C.3       1 <0>        -0.0455
     17 C11         0.5949    1.3912   -0.2553 C.2       1 <0>         0.1384
     18 C12        -1.1371   -0.5784   -1.7266 C.3       1 <0>        -0.0559
     19 C13         4.0268   -1.4230   -0.2049 C.3       1 <0>        -0.0302
     20 C14         4.2677    0.0217    0.1557 C.2       1 <0>        -0.0556
     21 C15        -3.5379   -0.9681   -0.0764 C.2       1 <0>         0.2022
     22 C16         3.3119    1.1276   -1.8725 C.3       1 <0>        -0.0517
     23 C17         3.5071    2.4230    0.2172 C.2       1 <0>        -0.0698
     24 C18         5.3299    0.3524    0.9070 C.2       1 <0>        -0.0149
     25 C19        -3.9950    0.4738   -0.0130 C.3       1 <0>         0.1530
     26 C20         4.5621    2.7562    0.9677 C.2       1 <0>        -0.0180
     27 C21         5.5649    1.7438    1.3415 C.2       1 <0>         0.1787
     28 C22        -5.9378    1.8072    0.1656 C.2       1 <0>         0.3043
     29 C23        -7.4300    1.7299    0.2812 C.3       1 <0>         0.0332
     30 H1          0.2398   -1.2350    1.4534 H         1 <0>         0.0310
     31 H2          1.5064   -1.0650   -1.3049 H         1 <0>         0.0311
     32 H3          1.8244    0.5990    1.2608 H         1 <0>         0.0392
     33 H4          0.1830   -3.5093    0.8426 H         1 <0>         0.0269
     34 H5         -0.0774   -3.1602   -0.8696 H         1 <0>         0.0269
     35 H6         -0.7651    1.0419    1.3433 H         1 <0>         0.0348
     36 H7         -1.5243    1.5977   -0.1523 H         1 <0>         0.0348
     37 H8         -2.3086   -3.2626   -0.4608 H         1 <0>         0.0297
     38 H9         -2.0767   -3.3140    1.2884 H         1 <0>         0.0297
     39 H10         2.4886   -2.9060   -0.0300 H         1 <0>         0.0271
     40 H11         2.6596   -1.8871    1.3965 H         1 <0>         0.0271
     41 H12        -1.3159   -1.5925   -2.0974 H         1 <0>         0.0236
     42 H13        -1.9690    0.0417   -2.0741 H         1 <0>         0.0236
     43 H14        -0.2466   -0.2028   -2.2392 H         1 <0>         0.0236
     44 H15         4.0914   -1.5512   -1.2914 H         1 <0>         0.0310
     45 H16         4.7950   -2.0771    0.2254 H         1 <0>         0.0310
     46 H17         3.0200    0.1984   -2.3710 H         1 <0>         0.0241
     47 H18         2.6762    1.9211   -2.2789 H         1 <0>         0.0241
     48 H19         4.3377    1.3537   -2.1916 H         1 <0>         0.0241
     49 H20         2.8203    3.2256   -0.0379 H         1 <0>         0.0582
     50 H21        -2.9586   -1.5483    2.2779 H         1 <0>         0.2108
     51 H22         6.0472   -0.3898    1.2411 H         1 <0>         0.0655
     52 H23        -3.6735    0.9820   -0.9265 H         1 <0>         0.0779
     53 H24        -3.5584    0.9615    0.8634 H         1 <0>         0.0779
     54 H25         4.7116    3.7737    1.3096 H         1 <0>         0.0653
     55 H26        -7.7029    1.1940    1.1937 H         1 <0>         0.0342
     56 H27        -7.8438    1.2297   -0.5978 H         1 <0>         0.0342
     57 H28        -7.8431    2.7414    0.3340 H         1 <0>         0.0342
@<TRIPOS>BOND
     1    1   11 1
     2    1   50 1
     3    2   17 2
     4    3   21 2
     5    4   25 1
     6    4   28 1
     7    5   27 2
     8    6   28 2
     9    7    8 1
    10    7   11 1
    11    7   13 1
    12    7   18 1
    13    8    9 1
    14    8   12 1
    15    8   30 1
    16    9   10 1
    17    9   16 1
    18    9   31 1
    19   10   15 1
    20   10   17 1
    21   10   32 1
    22   11   14 1
    23   11   21 1
    24   12   14 1
    25   12   33 1
    26   12   34 1
    27   13   17 1
    28   13   35 1
    29   13   36 1
    30   14   37 1
    31   14   38 1
    32   15   20 1
    33   15   22 1
    34   15   23 1
    35   16   19 1
    36   16   39 1
    37   16   40 1
    38   18   41 1
    39   18   42 1
    40   18   43 1
    41   19   20 1
    42   19   44 1
    43   19   45 1
    44   20   24 2
    45   21   25 1
    46   22   46 1
    47   22   47 1
    48   22   48 1
    49   23   26 2
    50   23   49 1
    51   24   27 1
    52   24   51 1
    53   25   52 1
    54   25   53 1
    55   26   27 1
    56   26   54 1
    57   28   29 1
    58   29   55 1
    59   29   56 1
    60   29   57 1
