@<TRIPOS>MOLECULE
DB14989
   66    71     0     0     0
SMALL
USER_CHARGES

@<TRIPOS>ATOM
      1 F1          2.5640   -6.7504   -1.1987 F         1 <0>        -0.2055
      2 F2         -5.1776    0.8452    2.6816 F         1 <0>        -0.2016
      3 F3          7.9902    1.6156    0.9804 F         1 <0>        -0.2055
      4 O1          1.9887   -1.7016    0.8939 O.3       1 <0>        -0.4567
      5 O2          5.2015   -2.4289   -1.4928 O.2       1 <0>        -0.2864
      6 O3         -6.1698   -0.7042    0.6342 O.3       1 <0>        -0.4865
      7 N1          1.1972    1.1068    0.8301 N.pl3     1 <0>        -0.2354
      8 N2          0.0881    0.3751    1.0450 N.2       1 <0>        -0.1680
      9 N3          1.8635    3.2073   -0.1731 N.ar      1 <0>        -0.2161
     10 N4         -0.0457    4.4101   -1.0997 N.ar      1 <0>        -0.2204
     11 N5         -2.2757    3.5654   -0.9971 N.pl3     1 <0>        -0.3425
     12 C1          2.5392    0.5870    1.3053 C.3       1 <0>         0.1103
     13 C2          2.9099   -0.6990    0.6199 C.2       1 <0>         0.1411
     14 C3          0.9587    2.2791    0.1764 C.ar      1 <0>         0.1645
     15 C4          3.9986   -0.8668   -0.1612 C.2       1 <0>         0.0697
     16 C5         -0.4053    2.3175   -0.0536 C.ar      1 <0>         0.0859
     17 C6          2.5845    0.4350    2.8274 C.3       1 <0>        -0.0354
     18 C7         -0.8844    1.1177    0.5045 C.2       1 <0>         0.1054
     19 C8          4.2355   -2.2054   -0.7742 C.2       1 <0>         0.2006
     20 C9          3.2506   -3.2528   -0.4730 C.ar      1 <0>         0.0673
     21 C10         2.1738   -2.9433    0.3499 C.ar      1 <0>         0.1391
     22 C11        -2.2466    0.6483    0.5379 C.ar      1 <0>         0.0058
     23 C12         4.9406    0.2133   -0.4223 C.ar      1 <0>        -0.0082
     24 C13        -0.9035    3.4336   -0.7176 C.ar      1 <0>         0.1308
     25 C14         3.3887   -4.5393   -1.0010 C.ar      1 <0>        -0.0121
     26 C15         1.2236   -3.9197    0.6526 C.ar      1 <0>        -0.0159
     27 C16        -3.0718    0.9793    1.6127 C.ar      1 <0>        -0.0136
     28 C17        -2.7395   -0.1375   -0.5039 C.ar      1 <0>        -0.0489
     29 C18         6.0362    0.4014    0.4203 C.ar      1 <0>        -0.0185
     30 C19         4.7472    1.0595   -1.5142 C.ar      1 <0>        -0.0536
     31 C20         1.2657    4.2387   -0.8079 C.ar      1 <0>         0.1204
     32 C21         2.4379   -5.5145   -0.6976 C.ar      1 <0>         0.1243
     33 C22         1.3569   -5.2054    0.1283 C.ar      1 <0>        -0.0229
     34 C23        -4.3901    0.5245    1.6457 C.ar      1 <0>         0.1654
     35 C24        -4.0577   -0.5923   -0.4706 C.ar      1 <0>        -0.0164
     36 C25        -4.8830   -0.2614    0.6040 C.ar      1 <0>         0.1559
     37 C26         6.9385    1.4356    0.1708 C.ar      1 <0>         0.1240
     38 C27         5.6493    2.0939   -1.7636 C.ar      1 <0>        -0.0585
     39 C28         6.7450    2.2818   -0.9211 C.ar      1 <0>        -0.0264
     40 C29        -7.0204   -0.3002   -0.4378 C.3       1 <0>         0.0948
     41 C30        -8.1779    0.5136    0.1208 C.3       1 <0>        -0.0281
     42 C31        -7.5036   -1.5334   -1.1857 C.3       1 <0>        -0.0281
     43 H1          3.2320    1.3959    1.0525 H         1 <0>         0.0624
     44 H2          1.8623   -0.3052    3.1898 H         1 <0>         0.0254
     45 H3          2.3439    1.3866    3.3147 H         1 <0>         0.0254
     46 H4          3.5816    0.1282    3.1618 H         1 <0>         0.0254
     47 H5          4.2236   -4.7994   -1.6453 H         1 <0>         0.0654
     48 H6          0.3785   -3.6863    1.2946 H         1 <0>         0.0655
     49 H7         -2.7032    1.5909    2.4326 H         1 <0>         0.0654
     50 H8         -2.1082   -0.4059   -1.3477 H         1 <0>         0.0625
     51 H9          6.2009   -0.2493    1.2756 H         1 <0>         0.0652
     52 H10         3.8974    0.9268   -2.1795 H         1 <0>         0.0624
     53 H11         1.9246    5.0385   -1.1282 H         1 <0>         0.1048
     54 H12         0.6187   -5.9666    0.3628 H         1 <0>         0.0647
     55 H13        -4.4213   -1.2109   -1.2858 H         1 <0>         0.0655
     56 H14        -2.9385    2.8546   -0.7248 H         1 <0>         0.1437
     57 H15        -2.5957    4.3931   -1.4818 H         1 <0>         0.1437
     58 H16         5.4981    2.7532   -2.6132 H         1 <0>         0.0619
     59 H17         7.4474    3.0871   -1.1148 H         1 <0>         0.0646
     60 H18        -6.4850    0.3437   -1.1489 H         1 <0>         0.0727
     61 H19        -6.6594   -2.1036   -1.5861 H         1 <0>         0.0265
     62 H20        -7.8038    1.3974    0.6488 H         1 <0>         0.0265
     63 H21        -8.1636   -1.2621   -2.0153 H         1 <0>         0.0265
     64 H22        -8.8551    0.8423   -0.6733 H         1 <0>         0.0265
     65 H23        -8.7497   -0.0700    0.8507 H         1 <0>         0.0265
     66 H24        -8.0462   -2.2082   -0.5141 H         1 <0>         0.0265
@<TRIPOS>BOND
     1    1   32 1
     2    2   34 1
     3    3   37 1
     4    4   13 1
     5    4   21 1
     6    5   19 2
     7    6   36 1
     8    6   40 1
     9    7    8 1
    10    7   12 1
    11    7   14 2
    12    8   18 1
    13    9   14 ar
    14    9   31 ar
    15   10   24 ar
    16   10   31 ar
    17   11   24 1
    18   11   56 1
    19   11   57 1
    20   12   13 1
    21   12   17 1
    22   12   43 1
    23   13   15 2
    24   14   16 ar
    25   15   19 1
    26   15   23 1
    27   16   18 2
    28   16   24 ar
    29   17   44 1
    30   17   45 1
    31   17   46 1
    32   18   22 1
    33   19   20 1
    34   20   21 ar
    35   20   25 ar
    36   21   26 ar
    37   22   27 ar
    38   22   28 ar
    39   23   29 ar
    40   23   30 ar
    41   25   32 ar
    42   25   47 1
    43   26   33 ar
    44   26   48 1
    45   27   34 ar
    46   27   49 1
    47   28   35 ar
    48   28   50 1
    49   29   37 ar
    50   29   51 1
    51   30   38 ar
    52   30   52 1
    53   31   53 1
    54   32   33 ar
    55   33   54 1
    56   34   36 ar
    57   35   36 ar
    58   35   55 1
    59   37   39 ar
    60   38   39 ar
    61   38   58 1
    62   39   59 1
    63   40   41 1
    64   40   42 1
    65   40   60 1
    66   41   62 1
    67   41   64 1
    68   41   65 1
    69   42   61 1
    70   42   63 1
    71   42   66 1
