@<TRIPOS>MOLECULE
DB14196
   42    44     0     0     0
SMALL
USER_CHARGES

@<TRIPOS>ATOM
      1 N1          2.1714   -0.9620    0.1359 N.pl3     1 <0>        -0.3410
      2 N2         -3.4160   -1.3283   -0.2166 N.pl3     1 <0>        -0.3145
      3 C1          2.8601    0.0420    0.9247 C.3       1 <0>         0.0206
      4 C2          4.2814   -0.4285    1.2497 C.3       1 <0>        -0.0346
      5 C3          2.8676    1.3814    0.1811 C.3       1 <0>        -0.0346
      6 C4          5.1994   -0.4269    0.0272 C.3       1 <0>        -0.0514
      7 C5          3.7905    1.3766   -1.0377 C.3       1 <0>        -0.0514
      8 C6          5.2022    0.9279   -0.6738 C.3       1 <0>        -0.0529
      9 C7          0.7944   -1.0521    0.0489 C.ar      1 <0>         0.0274
     10 C8          0.1811   -2.0490   -0.7357 C.ar      1 <0>        -0.0391
     11 C9         -0.0366   -0.1499    0.7420 C.ar      1 <0>        -0.0391
     12 C10        -1.2080   -2.1398   -0.8233 C.ar      1 <0>        -0.0388
     13 C11        -1.4257   -0.2411    0.6546 C.ar      1 <0>        -0.0388
     14 C12        -2.0115   -1.2360   -0.1281 C.ar      1 <0>         0.0314
     15 C13        -4.4422   -0.3666   -0.1371 C.ar      1 <0>         0.0313
     16 C14        -5.6987   -0.7236    0.3550 C.ar      1 <0>        -0.0405
     17 C15        -4.2049    0.9455   -0.5504 C.ar      1 <0>        -0.0405
     18 C16        -6.7149    0.2287    0.4336 C.ar      1 <0>        -0.0600
     19 C17        -5.2211    1.8979   -0.4716 C.ar      1 <0>        -0.0600
     20 C18        -6.4761    1.5394    0.0204 C.ar      1 <0>        -0.0616
     21 H1          2.3621    0.1622    1.8944 H         1 <0>         0.0497
     22 H2          4.2602   -1.4351    1.6849 H         1 <0>         0.0283
     23 H3          4.7110    0.2362    2.0103 H         1 <0>         0.0283
     24 H4          3.2126    2.1612    0.8727 H         1 <0>         0.0283
     25 H5          1.8643    1.6796   -0.1404 H         1 <0>         0.0283
     26 H6          4.8888   -1.2049   -0.6799 H         1 <0>         0.0266
     27 H7          6.2199   -0.6781    0.3387 H         1 <0>         0.0266
     28 H8          3.8269    2.3818   -1.4730 H         1 <0>         0.0266
     29 H9          3.3821    0.7125   -1.8091 H         1 <0>         0.0266
     30 H10         5.6647    1.6762   -0.0183 H         1 <0>         0.0265
     31 H11         5.8171    0.8737   -1.5791 H         1 <0>         0.0265
     32 H12         2.7179   -1.6019   -0.4291 H         1 <0>         0.1463
     33 H13         0.7923   -2.7621   -1.2846 H         1 <0>         0.0637
     34 H14         0.3601    0.6400    1.3722 H         1 <0>         0.0637
     35 H15        -1.6528   -2.9188   -1.4374 H         1 <0>         0.0637
     36 H16        -2.0273    0.4617    1.2246 H         1 <0>         0.0637
     37 H17        -3.7537   -2.2747   -0.3678 H         1 <0>         0.1522
     38 H18        -5.8973   -1.7413    0.6812 H         1 <0>         0.0636
     39 H19        -3.2443    1.2481   -0.9586 H         1 <0>         0.0636
     40 H20        -7.6922   -0.0501    0.8166 H         1 <0>         0.0618
     41 H21        -5.0370    2.9172   -0.7981 H         1 <0>         0.0618
     42 H22        -7.2677    2.2806    0.0806 H         1 <0>         0.0618
@<TRIPOS>BOND
     1    1    3 1
     2    1    9 1
     3    1   32 1
     4    2   14 1
     5    2   15 1
     6    2   37 1
     7    3    4 1
     8    3    5 1
     9    3   21 1
    10    4    6 1
    11    4   22 1
    12    4   23 1
    13    5    7 1
    14    5   24 1
    15    5   25 1
    16    6    8 1
    17    6   26 1
    18    6   27 1
    19    7    8 1
    20    7   28 1
    21    7   29 1
    22    8   30 1
    23    8   31 1
    24    9   10 ar
    25    9   11 ar
    26   10   12 ar
    27   10   33 1
    28   11   13 ar
    29   11   34 1
    30   12   14 ar
    31   12   35 1
    32   13   14 ar
    33   13   36 1
    34   15   16 ar
    35   15   17 ar
    36   16   18 ar
    37   16   38 1
    38   17   19 ar
    39   17   39 1
    40   18   20 ar
    41   18   40 1
    42   19   20 ar
    43   19   41 1
    44   20   42 1
