@<TRIPOS>MOLECULE
DB14476
   81    82     0     0     0
SMALL
USER_CHARGES

@<TRIPOS>ATOM
      1 O1         -3.4425    0.7018    0.5037 O.3       1 <0>        -0.4854
      2 O2          0.8245    4.1537    1.1282 O.3       1 <0>        -0.5062
      3 C1         -3.9627    0.4180   -0.8087 C.3       1 <0>         0.1082
      4 C2         -3.1382   -0.7158   -1.4369 C.3       1 <0>        -0.0132
      5 C3         -4.0073    1.6777   -1.6886 C.3       1 <0>        -0.0091
      6 C4         -2.7277   -1.7570   -0.3938 C.3       1 <0>        -0.0492
      7 C5         -1.4194   -3.9521   -0.0309 C.3       1 <0>        -0.0439
      8 C6         -1.9345   -2.8993   -1.0379 C.3       1 <0>        -0.0503
      9 C7         -2.6302    2.3127   -1.8200 C.3       1 <0>        -0.0202
     10 C8         -0.6230   -3.2989    1.1190 C.3       1 <0>        -0.0505
     11 C9         -5.3975   -0.0849   -0.5914 C.3       1 <0>        -0.0249
     12 C10        -1.9636    2.3835   -0.4781 C.ar      1 <0>         0.0011
     13 C11         0.6539   -2.5863    0.6598 C.3       1 <0>        -0.0526
     14 C12        -2.3957    1.5818    0.5850 C.ar      1 <0>         0.1281
     15 C13         1.4517   -1.9564    1.8103 C.3       1 <0>        -0.0505
     16 C14         2.7190   -1.1620    1.4169 C.3       1 <0>        -0.0439
     17 C15        -0.5846   -4.9932   -0.7859 C.3       1 <0>        -0.0624
     18 C16         2.3648    0.2019    0.7877 C.3       1 <0>        -0.0505
     19 C17        -0.8709    3.2404   -0.2878 C.ar      1 <0>        -0.0021
     20 C18        -1.7639    1.6646    1.8292 C.ar      1 <0>        -0.0021
     21 C19         3.5550    1.0703    0.3596 C.3       1 <0>        -0.0526
     22 C20        -0.6853    2.5288    2.0116 C.ar      1 <0>        -0.0024
     23 C21         3.6021   -0.9986    2.6609 C.3       1 <0>        -0.0624
     24 C22        -0.2364    3.3138    0.9524 C.ar      1 <0>         0.1234
     25 C23         4.4521    0.4732   -0.7317 C.3       1 <0>        -0.0507
     26 C24         3.7428    0.0906   -2.0446 C.3       1 <0>        -0.0467
     27 C25        -0.3596    4.0876   -1.4122 C.3       1 <0>        -0.0359
     28 C26        -2.2396    0.8186    2.9694 C.3       1 <0>        -0.0359
     29 C27        -0.0039    2.6152    3.3403 C.3       1 <0>        -0.0359
     30 C28         4.6931   -0.5504   -3.0562 C.3       1 <0>        -0.0627
     31 C29         3.0923    1.3316   -2.6612 C.3       1 <0>        -0.0627
     32 H1         -3.6902   -1.1839   -2.2612 H         1 <0>         0.0304
     33 H2         -2.2123   -0.3277   -1.8746 H         1 <0>         0.0304
     34 H3         -4.6794    2.4145   -1.2266 H         1 <0>         0.0307
     35 H4         -4.4116    1.4529   -2.6829 H         1 <0>         0.0307
     36 H5         -3.6011   -2.1764    0.1156 H         1 <0>         0.0267
     37 H6         -2.1038   -1.2709    0.3586 H         1 <0>         0.0267
     38 H7         -2.2844   -4.4619    0.4123 H         1 <0>         0.0298
     39 H8         -1.0957   -2.4828   -1.6092 H         1 <0>         0.0268
     40 H9         -2.5771   -3.4035   -1.7718 H         1 <0>         0.0268
     41 H10        -2.7669    3.3148   -2.2427 H         1 <0>         0.0316
     42 H11        -2.0027    1.7438   -2.5146 H         1 <0>         0.0316
     43 H12        -0.3347   -4.0926    1.8217 H         1 <0>         0.0268
     44 H13        -1.2534   -2.6199    1.7023 H         1 <0>         0.0268
     45 H14        -5.8712   -0.3810   -1.5333 H         1 <0>         0.0268
     46 H15        -5.4356   -0.9324    0.1006 H         1 <0>         0.0268
     47 H16        -6.0126    0.6984   -0.1324 H         1 <0>         0.0268
     48 H17         0.3956   -1.7991   -0.0546 H         1 <0>         0.0265
     49 H18         1.3150   -3.2871    0.1389 H         1 <0>         0.0265
     50 H19         0.7870   -1.3042    2.3922 H         1 <0>         0.0268
     51 H20         1.7391   -2.7740    2.4850 H         1 <0>         0.0268
     52 H21         3.2768   -1.7607    0.6868 H         1 <0>         0.0298
     53 H22         0.2242   -4.5380   -1.3659 H         1 <0>         0.0232
     54 H23        -1.2170   -5.5473   -1.4885 H         1 <0>         0.0232
     55 H24        -0.1466   -5.7183   -0.0923 H         1 <0>         0.0232
     56 H25         1.6984    0.0568   -0.0687 H         1 <0>         0.0268
     57 H26         1.7844    0.7771    1.5174 H         1 <0>         0.0268
     58 H27         3.1683    2.0390    0.0205 H         1 <0>         0.0265
     59 H28         4.1750    1.3063    1.2321 H         1 <0>         0.0265
     60 H29         3.8048   -1.9687    3.1275 H         1 <0>         0.0232
     61 H30         4.5725   -0.5614    2.4076 H         1 <0>         0.0232
     62 H31         3.1200   -0.3579    3.4069 H         1 <0>         0.0232
     63 H32         5.2511    1.1940   -0.9498 H         1 <0>         0.0268
     64 H33         4.9546   -0.4152   -0.3298 H         1 <0>         0.0268
     65 H34         2.9574   -0.6441   -1.8320 H         1 <0>         0.0295
     66 H35        -1.0383    4.9284   -1.5880 H         1 <0>         0.0279
     67 H36         0.6367    4.4981   -1.2203 H         1 <0>         0.0279
     68 H37        -0.2649    3.5013   -2.3325 H         1 <0>         0.0279
     69 H38        -1.4057    0.2662    3.4166 H         1 <0>         0.0279
     70 H39        -2.9676    0.0571    2.6737 H         1 <0>         0.0279
     71 H40        -2.7203    1.4423    3.7304 H         1 <0>         0.0279
     72 H41         0.9172    2.0247    3.3367 H         1 <0>         0.0279
     73 H42         0.2392    3.6540    3.5915 H         1 <0>         0.0279
     74 H43        -0.6223    2.2733    4.1743 H         1 <0>         0.0279
     75 H44         5.4983    0.1380   -3.3349 H         1 <0>         0.0232
     76 H45         4.1592   -0.8370   -3.9684 H         1 <0>         0.0232
     77 H46         5.1498   -1.4531   -2.6374 H         1 <0>         0.0232
     78 H47         3.8240    2.1319   -2.8160 H         1 <0>         0.0232
     79 H48         2.2849    1.7199   -2.0332 H         1 <0>         0.0232
     80 H49         2.6488    1.0912   -3.6339 H         1 <0>         0.0232
     81 H50         1.3680    3.8641    1.8780 H         1 <0>         0.2922
@<TRIPOS>BOND
     1    1    3 1
     2    1   14 1
     3    2   24 1
     4    2   81 1
     5    3    4 1
     6    3    5 1
     7    3   11 1
     8    4    6 1
     9    4   32 1
    10    4   33 1
    11    5    9 1
    12    5   34 1
    13    5   35 1
    14    6    8 1
    15    6   36 1
    16    6   37 1
    17    7    8 1
    18    7   10 1
    19    7   17 1
    20    7   38 1
    21    8   39 1
    22    8   40 1
    23    9   12 1
    24    9   41 1
    25    9   42 1
    26   10   13 1
    27   10   43 1
    28   10   44 1
    29   11   45 1
    30   11   46 1
    31   11   47 1
    32   12   14 ar
    33   12   19 ar
    34   13   15 1
    35   13   48 1
    36   13   49 1
    37   14   20 ar
    38   15   16 1
    39   15   50 1
    40   15   51 1
    41   16   18 1
    42   16   23 1
    43   16   52 1
    44   17   53 1
    45   17   54 1
    46   17   55 1
    47   18   21 1
    48   18   56 1
    49   18   57 1
    50   19   24 ar
    51   19   27 1
    52   20   22 ar
    53   20   28 1
    54   21   25 1
    55   21   58 1
    56   21   59 1
    57   22   24 ar
    58   22   29 1
    59   23   60 1
    60   23   61 1
    61   23   62 1
    62   25   26 1
    63   25   63 1
    64   25   64 1
    65   26   30 1
    66   26   31 1
    67   26   65 1
    68   27   66 1
    69   27   67 1
    70   27   68 1
    71   28   69 1
    72   28   70 1
    73   28   71 1
    74   29   72 1
    75   29   73 1
    76   29   74 1
    77   30   75 1
    78   30   76 1
    79   30   77 1
    80   31   78 1
    81   31   79 1
    82   31   80 1
