@<TRIPOS>MOLECULE
DB14195
   35    36     0     0     0
SMALL
USER_CHARGES

@<TRIPOS>ATOM
      1 N1          3.2147   -0.6861   -0.1600 N.pl3     1 <0>        -0.3415
      2 N2         -2.3542   -1.3503   -0.0045 N.pl3     1 <0>        -0.3145
      3 C1          3.8949    0.4812    0.3992 C.3       1 <0>         0.0150
      4 C2          1.8494   -0.8490   -0.1220 C.ar      1 <0>         0.0274
      5 C3          3.7902    1.6642   -0.5592 C.3       1 <0>        -0.0470
      6 C4          5.3527    0.1324    0.6819 C.3       1 <0>        -0.0470
      7 C5         -0.9543   -1.1832   -0.0436 C.ar      1 <0>         0.0314
      8 C6          1.2326   -1.9925   -0.6765 C.ar      1 <0>        -0.0391
      9 C7          1.0125    0.1213    0.4728 C.ar      1 <0>        -0.0391
     10 C8         -0.1521   -2.1574   -0.6379 C.ar      1 <0>        -0.0388
     11 C9         -0.3720   -0.0437    0.5117 C.ar      1 <0>        -0.0388
     12 C10        -3.4246   -0.4349   -0.0074 C.ar      1 <0>         0.0313
     13 C11        -4.6215   -0.7559    0.6353 C.ar      1 <0>        -0.0405
     14 C12        -3.2912    0.7956   -0.6532 C.ar      1 <0>        -0.0405
     15 C13        -5.6816    0.1505    0.6321 C.ar      1 <0>        -0.0600
     16 C14        -4.3513    1.7021   -0.6562 C.ar      1 <0>        -0.0600
     17 C15        -5.5465    1.3796   -0.0134 C.ar      1 <0>        -0.0616
     18 H1          3.4628    0.7523    1.3698 H         1 <0>         0.0492
     19 H2          3.7660   -1.3711   -0.6649 H         1 <0>         0.1463
     20 H3          4.3082    2.5384   -0.1505 H         1 <0>         0.0247
     21 H4          4.2465    1.4259   -1.5271 H         1 <0>         0.0247
     22 H5          2.7542    1.9554   -0.7536 H         1 <0>         0.0247
     23 H6          5.4225   -0.7120    1.3766 H         1 <0>         0.0247
     24 H7          5.8796    0.9824    1.1276 H         1 <0>         0.0247
     25 H8          5.8800   -0.1515   -0.2358 H         1 <0>         0.0247
     26 H9          1.8420   -2.7630   -1.1441 H         1 <0>         0.0637
     27 H10         1.4055    1.0246    0.9294 H         1 <0>         0.0637
     28 H11        -0.5943   -3.0491   -1.0749 H         1 <0>         0.0637
     29 H12        -0.9707    0.7197    1.0008 H         1 <0>         0.0637
     30 H13        -2.6478   -2.3224    0.0332 H         1 <0>         0.1522
     31 H14        -4.7391   -1.7100    1.1428 H         1 <0>         0.0636
     32 H15        -2.3803    1.0648   -1.1809 H         1 <0>         0.0636
     33 H16        -6.6123   -0.1005    1.1324 H         1 <0>         0.0618
     34 H17        -4.2483    2.6571   -1.1632 H         1 <0>         0.0618
     35 H18        -6.3724    2.0850   -0.0167 H         1 <0>         0.0618
@<TRIPOS>BOND
     1    1    3 1
     2    1    4 1
     3    1   19 1
     4    2    7 1
     5    2   12 1
     6    2   30 1
     7    3    5 1
     8    3    6 1
     9    3   18 1
    10    4    8 ar
    11    4    9 ar
    12    5   20 1
    13    5   21 1
    14    5   22 1
    15    6   23 1
    16    6   24 1
    17    6   25 1
    18    7   10 ar
    19    7   11 ar
    20    8   10 ar
    21    8   26 1
    22    9   11 ar
    23    9   27 1
    24   10   28 1
    25   11   29 1
    26   12   13 ar
    27   12   14 ar
    28   13   15 ar
    29   13   31 1
    30   14   16 ar
    31   14   32 1
    32   15   17 ar
    33   15   33 1
    34   16   17 ar
    35   16   34 1
    36   17   35 1
