@<TRIPOS>MOLECULE
DB14669
   62    65     0     0     0
SMALL
USER_CHARGES

@<TRIPOS>ATOM
      1 P1          7.1496   -0.6769   -0.0343 P.3       1 <0>         0.4728
      2 F1         -2.2851   -0.4508    1.5877 F         1 <0>        -0.2377
      3 O1          2.1032   -0.5445    1.7265 O.3       1 <0>        -0.3802
      4 O2         -1.6252   -2.0585   -1.5588 O.3       1 <0>        -0.3886
      5 O3          3.0566   -1.6383   -1.1857 O.2       1 <0>        -0.2918
      6 O4          5.6139   -0.8474   -0.5255 O.3       1 <0>        -0.2790
      7 O5         -7.0878   -0.2898    2.4263 O.2       1 <0>        -0.2879
      8 O6          7.2652   -1.6922    1.2191 O.3       1 <0>        -0.3026
      9 O7          7.1497    0.7805    0.6665 O.3       1 <0>        -0.3026
     10 O8          8.1809   -0.8637   -1.1085 O.2       1 <0>        -0.2275
     11 C1          0.6932   -0.4080   -0.2749 C.3       1 <0>         0.0096
     12 C2         -0.1142    0.7941    0.2625 C.3       1 <0>        -0.0263
     13 C3         -1.5622    0.8344   -0.2499 C.3       1 <0>         0.0003
     14 C4         -2.3020   -0.4719    0.2013 C.3       1 <0>         0.1526
     15 C5          2.0857   -0.1064    0.3615 C.3       1 <0>         0.1340
     16 C6          0.8021    1.9792   -0.0260 C.3       1 <0>        -0.0436
     17 C7         -0.0116   -1.6905    0.2162 C.3       1 <0>        -0.0151
     18 C8          2.2096    1.4506    0.3525 C.3       1 <0>        -0.0071
     19 C9         -1.5053   -1.7566   -0.1775 C.3       1 <0>         0.0910
     20 C10        -3.8288   -0.4587   -0.2038 C.3       1 <0>         0.0443
     21 C11        -2.2810    2.0909    0.2757 C.3       1 <0>        -0.0432
     22 C12         0.8161   -0.4213   -1.8239 C.3       1 <0>        -0.0562
     23 C13        -3.7555    2.1168   -0.1082 C.3       1 <0>        -0.0301
     24 C14        -4.4344    0.8446    0.3307 C.2       1 <0>        -0.0532
     25 C15         3.2252   -0.8850   -0.2281 C.2       1 <0>         0.1913
     26 C16         3.2750    2.0489   -0.5609 C.3       1 <0>        -0.0594
     27 C17        -4.0768   -0.5091   -1.7289 C.3       1 <0>        -0.0493
     28 C18        -4.5372   -1.6731    0.3794 C.2       1 <0>        -0.0674
     29 C19        -5.4768    0.8920    1.1751 C.2       1 <0>        -0.0148
     30 C20         4.5785   -0.6881    0.4213 C.3       1 <0>         0.1200
     31 C21        -5.5742   -1.6326    1.2216 C.2       1 <0>        -0.0180
     32 C22        -6.1259   -0.3401    1.6674 C.2       1 <0>         0.1787
     33 H1         -0.1733    0.7149    1.3604 H         1 <0>         0.0311
     34 H2         -1.5685    0.9005   -1.3414 H         1 <0>         0.0336
     35 H3          0.7468    2.2716   -1.0810 H         1 <0>         0.0272
     36 H4          0.5420    2.8565    0.5758 H         1 <0>         0.0272
     37 H5          0.0237   -1.7501    1.3103 H         1 <0>         0.0297
     38 H6          0.5133   -2.5727   -0.1700 H         1 <0>         0.0297
     39 H7          2.4221    1.7975    1.3733 H         1 <0>         0.0330
     40 H8         -1.9177   -2.6067    0.3801 H         1 <0>         0.0626
     41 H9         -1.8011    2.9922   -0.1238 H         1 <0>         0.0272
     42 H10        -2.1893    2.1435    1.3687 H         1 <0>         0.0272
     43 H11         1.5687    0.2755   -2.2021 H         1 <0>         0.0236
     44 H12         1.0478   -1.4188   -2.2114 H         1 <0>         0.0236
     45 H13        -0.1161   -0.1417   -2.3197 H         1 <0>         0.0236
     46 H14        -3.8611    2.2393   -1.1922 H         1 <0>         0.0310
     47 H15        -4.2243    2.9984    0.3458 H         1 <0>         0.0310
     48 H16         4.2828    1.9532   -0.1543 H         1 <0>         0.0233
     49 H17         3.2622    1.6050   -1.5601 H         1 <0>         0.0233
     50 H18         3.1035    3.1252   -0.6816 H         1 <0>         0.0233
     51 H19        -3.4274    0.1734   -2.2850 H         1 <0>         0.0242
     52 H20        -3.9344   -1.5105   -2.1475 H         1 <0>         0.0242
     53 H21        -5.1118   -0.2300   -1.9684 H         1 <0>         0.0242
     54 H22         2.0536   -1.5151    1.7474 H         1 <0>         0.2108
     55 H23        -4.1897   -2.6557    0.0680 H         1 <0>         0.0583
     56 H24        -2.2360   -2.8101   -1.6444 H         1 <0>         0.2099
     57 H25        -5.8734    1.8332    1.5413 H         1 <0>         0.0656
     58 H26         4.6743   -1.4681    1.1847 H         1 <0>         0.0646
     59 H27         4.6622    0.2728    0.9260 H         1 <0>         0.0646
     60 H28        -6.0393   -2.5405    1.5878 H         1 <0>         0.0653
     61 H29         8.1387   -1.8215    1.6460 H         1 <0>         0.2220
     62 H30         8.0010    1.1607    0.9709 H         1 <0>         0.2220
@<TRIPOS>BOND
     1    1    6 1
     2    1    8 1
     3    1    9 1
     4    1   10 2
     5    2   14 1
     6    3   15 1
     7    3   54 1
     8    4   19 1
     9    4   56 1
    10    5   25 2
    11    6   30 1
    12    7   32 2
    13    8   61 1
    14    9   62 1
    15   11   12 1
    16   11   15 1
    17   11   17 1
    18   11   22 1
    19   12   13 1
    20   12   16 1
    21   12   33 1
    22   13   14 1
    23   13   21 1
    24   13   34 1
    25   14   19 1
    26   14   20 1
    27   15   18 1
    28   15   25 1
    29   16   18 1
    30   16   35 1
    31   16   36 1
    32   17   19 1
    33   17   37 1
    34   17   38 1
    35   18   26 1
    36   18   39 1
    37   19   40 1
    38   20   24 1
    39   20   27 1
    40   20   28 1
    41   21   23 1
    42   21   41 1
    43   21   42 1
    44   22   43 1
    45   22   44 1
    46   22   45 1
    47   23   24 1
    48   23   46 1
    49   23   47 1
    50   24   29 2
    51   25   30 1
    52   26   48 1
    53   26   49 1
    54   26   50 1
    55   27   51 1
    56   27   52 1
    57   27   53 1
    58   28   31 2
    59   28   55 1
    60   29   32 1
    61   29   57 1
    62   30   58 1
    63   30   59 1
    64   31   32 1
    65   31   60 1
