@<TRIPOS>MOLECULE
DB14845
   53    57     0     0     0
SMALL
USER_CHARGES

@<TRIPOS>ATOM
      1 S1          5.4867   -2.8625    0.6779 S.o2      1 <0>        -0.0286
      2 O1         -6.6130   -0.8526   -0.2748 O.2       1 <0>        -0.2751
      3 O2          5.2126   -4.2813    0.5643 O.2       1 <0>        -0.1743
      4 O3          6.6350   -2.3800    1.4198 O.2       1 <0>        -0.1743
      5 N1          4.1471   -0.2214   -0.3439 N.3       1 <0>        -0.2951
      6 N2         -4.2652   -1.0377   -0.4061 N.am      1 <0>        -0.2530
      7 N3         -2.5762    1.9429   -0.0699 N.pl3     1 <0>        -0.2108
      8 N4         -2.5277    0.5958   -0.2550 N.2       1 <0>        -0.1281
      9 N5         -4.7006    1.2717   -0.0690 N.2       1 <0>        -0.1938
     10 C1         -5.7171   -2.9885   -0.6093 C.3       1 <0>         0.0360
     11 C2         -6.4794   -3.7961    0.3998 C.3       1 <0>        -0.0412
     12 C3         -4.9858   -3.9159    0.3166 C.3       1 <0>        -0.0412
     13 C4         -5.5905   -1.5103   -0.4113 C.2       1 <0>         0.2225
     14 C5          4.0658   -0.5634    1.0866 C.3       1 <0>         0.0187
     15 C6          5.4190   -0.6620   -0.9423 C.3       1 <0>         0.0187
     16 C7          5.5510   -2.1803   -0.9613 C.3       1 <0>         0.0785
     17 C8          4.0314   -2.0694    1.3180 C.3       1 <0>         0.0785
     18 C9          3.9894    1.2249   -0.5195 C.3       1 <0>         0.0241
     19 C10         2.5528    1.6532   -0.3794 C.ar      1 <0>        -0.0333
     20 C11        -3.8149    0.2570   -0.2485 C.2       1 <0>         0.2416
     21 C12         2.1224    2.2797    0.7903 C.ar      1 <0>        -0.0567
     22 C13         1.6524    1.4241   -1.4198 C.ar      1 <0>        -0.0567
     23 C14        -0.1088    2.4480   -0.1211 C.ar      1 <0>         0.0005
     24 C15        -1.5150    2.8668    0.0160 C.2       1 <0>         0.0749
     25 C16         0.7918    2.6771    0.9193 C.ar      1 <0>        -0.0523
     26 C17         0.3217    1.8214   -1.2906 C.ar      1 <0>        -0.0523
     27 C18        -3.9205    2.3231    0.0455 C.2       1 <0>         0.1583
     28 C19        -1.8118    4.1682    0.2159 C.2       1 <0>        -0.0355
     29 C20        -4.2075    3.6994    0.2565 C.2       1 <0>        -0.0173
     30 C21        -3.1980    4.5832    0.3396 C.2       1 <0>        -0.0562
     31 H1         -5.8150   -3.2957   -1.6456 H         1 <0>         0.0394
     32 H2         -4.5753   -4.8263   -0.1034 H         1 <0>         0.0273
     33 H3         -4.4073   -3.5017    1.1332 H         1 <0>         0.0273
     34 H4         -6.8947   -3.2944    1.2652 H         1 <0>         0.0273
     35 H5         -7.0726   -4.6269    0.0374 H         1 <0>         0.0273
     36 H6          4.9032   -0.1177    1.6393 H         1 <0>         0.0442
     37 H7          3.1446   -0.1698    1.5286 H         1 <0>         0.0442
     38 H8          5.4725   -0.3240   -1.9847 H         1 <0>         0.0442
     39 H9          6.2700   -0.2132   -0.4138 H         1 <0>         0.0442
     40 H10         6.5062   -2.4825   -1.4016 H         1 <0>         0.0512
     41 H11         4.7424   -2.6388   -1.5404 H         1 <0>         0.0512
     42 H12         3.1651   -2.5240    0.8255 H         1 <0>         0.0512
     43 H13         3.9813   -2.2983    2.3870 H         1 <0>         0.0512
     44 H14         4.6381    1.7898    0.1641 H         1 <0>         0.0476
     45 H15         4.3041    1.5271   -1.5285 H         1 <0>         0.0476
     46 H16        -3.5223   -1.7196   -0.5374 H         1 <0>         0.1578
     47 H17         2.8132    2.4643    1.6088 H         1 <0>         0.0621
     48 H18         1.9762    0.9382   -2.3366 H         1 <0>         0.0621
     49 H19         0.4748    3.1585    1.8415 H         1 <0>         0.0624
     50 H20        -0.3634    1.6404   -2.1154 H         1 <0>         0.0624
     51 H21        -1.0529    4.9410    0.2826 H         1 <0>         0.0639
     52 H22        -5.2386    4.0212    0.3494 H         1 <0>         0.0655
     53 H23        -3.3962    5.6374    0.5006 H         1 <0>         0.0619
@<TRIPOS>BOND
     1    1    3 2
     2    1    4 2
     3    1   16 1
     4    1   17 1
     5    2   13 2
     6    5   14 1
     7    5   15 1
     8    5   18 1
     9    6   13 am
    10    6   20 1
    11    6   46 1
    12    7    8 1
    13    7   24 2
    14    7   27 1
    15    8   20 2
    16    9   20 1
    17    9   27 2
    18   10   11 1
    19   10   12 1
    20   10   13 1
    21   10   31 1
    22   11   12 1
    23   11   34 1
    24   11   35 1
    25   12   32 1
    26   12   33 1
    27   14   17 1
    28   14   36 1
    29   14   37 1
    30   15   16 1
    31   15   38 1
    32   15   39 1
    33   16   40 1
    34   16   41 1
    35   17   42 1
    36   17   43 1
    37   18   19 1
    38   18   44 1
    39   18   45 1
    40   19   21 ar
    41   19   22 ar
    42   21   25 ar
    43   21   47 1
    44   22   26 ar
    45   22   48 1
    46   23   24 1
    47   23   25 ar
    48   23   26 ar
    49   24   28 1
    50   25   49 1
    51   26   50 1
    52   27   29 2
    53   28   30 2
    54   28   51 1
    55   29   30 1
    56   29   52 1
    57   30   53 1
