@<TRIPOS>MOLECULE
DB14120
   30    31     0     0     0
SMALL
USER_CHARGES

@<TRIPOS>ATOM
      1 O1          1.8395    1.3255    1.9213 O.3       1 <0>        -0.5064
      2 O2          4.4266    0.1926   -1.9173 O.3       1 <0>        -0.5066
      3 C1         -0.3091   -0.3693    1.1008 C.3       1 <0>         0.0099
      4 C2          0.9862   -0.2069    0.2884 C.ar      1 <0>         0.0014
      5 C3         -1.5274    0.0773    0.3652 C.ar      1 <0>        -0.0401
      6 C4         -0.3329   -1.8074    1.6794 C.3       1 <0>        -0.0542
      7 C5          1.9685    0.6298    0.7569 C.ar      1 <0>         0.1241
      8 C6          1.0977   -0.9171   -0.8821 C.ar      1 <0>        -0.0511
      9 C7         -1.8835    1.4259    0.3592 C.ar      1 <0>        -0.0580
     10 C8         -2.3109   -0.8539   -0.3166 C.ar      1 <0>        -0.0580
     11 C9          3.1372    0.7654    0.0078 C.ar      1 <0>         0.0216
     12 C10         2.2664   -0.7812   -1.6311 C.ar      1 <0>        -0.0197
     13 C11         3.2863    0.0601   -1.1862 C.ar      1 <0>         0.1203
     14 C12        -3.0231    1.8435   -0.3282 C.ar      1 <0>        -0.0615
     15 C13        -3.4504   -0.4362   -1.0043 C.ar      1 <0>        -0.0615
     16 C14        -3.8065    0.9124   -1.0100 C.ar      1 <0>        -0.0617
     17 H1         -0.2568    0.2659    1.9962 H         1 <0>         0.0396
     18 H2          0.5435   -1.9794    2.3156 H         1 <0>         0.0239
     19 H3         -0.3261   -2.5829    0.9063 H         1 <0>         0.0239
     20 H4         -1.2262   -1.9584    2.2962 H         1 <0>         0.0239
     21 H5          0.3210   -1.5819   -1.2439 H         1 <0>         0.0623
     22 H6         -1.2816    2.1627    0.8846 H         1 <0>         0.0620
     23 H7         -2.0615   -1.9098   -0.3399 H         1 <0>         0.0620
     24 H8          3.9329    1.4208    0.3538 H         1 <0>         0.0691
     25 H9          2.3775   -1.3344   -2.5598 H         1 <0>         0.0654
     26 H10        -3.3000    2.8936   -0.3334 H         1 <0>         0.0618
     27 H11        -4.0597   -1.1607   -1.5368 H         1 <0>         0.0618
     28 H12        -4.6934    1.2375   -1.5459 H         1 <0>         0.0618
     29 H13         2.6429    1.8540    2.0667 H         1 <0>         0.2921
     30 H14         5.0227    0.8123   -1.4629 H         1 <0>         0.2921
@<TRIPOS>BOND
     1    1    7 1
     2    1   29 1
     3    2   13 1
     4    2   30 1
     5    3    4 1
     6    3    5 1
     7    3    6 1
     8    3   17 1
     9    4    7 ar
    10    4    8 ar
    11    5    9 ar
    12    5   10 ar
    13    6   18 1
    14    6   19 1
    15    6   20 1
    16    7   11 ar
    17    8   12 ar
    18    8   21 1
    19    9   14 ar
    20    9   22 1
    21   10   15 ar
    22   10   23 1
    23   11   13 ar
    24   11   24 1
    25   12   13 ar
    26   12   25 1
    27   14   16 ar
    28   14   26 1
    29   15   16 ar
    30   15   27 1
    31   16   28 1
