@<TRIPOS>MOLECULE
DB14583
   57    60     0     0     0
SMALL
USER_CHARGES

@<TRIPOS>ATOM
      1 O1          2.9420   -0.1953    1.2085 O.3       1 <0>        -0.4455
      2 O2          4.6551   -0.6747   -1.5463 O.2       1 <0>        -0.2931
      3 O3         -6.8652    0.2340    1.5774 O.2       1 <0>        -0.2927
      4 O4          5.2055    0.2322    1.0338 O.2       1 <0>        -0.2511
      5 C1          1.2780   -0.5341   -0.5978 C.3       1 <0>         0.0222
      6 C2          0.5687    0.8016   -0.2526 C.3       1 <0>        -0.0243
      7 C3         -0.9193    0.8053   -0.6194 C.3       1 <0>        -0.0336
      8 C4         -1.6370   -0.3409    0.1504 C.3       1 <0>        -0.0314
      9 C5          2.7422   -0.1752   -0.1996 C.3       1 <0>         0.1966
     10 C6          0.5906   -1.6401    0.2212 C.3       1 <0>        -0.0427
     11 C7         -0.9236   -1.7018   -0.0465 C.3       1 <0>        -0.0488
     12 C8          1.4719    1.8610   -0.8815 C.3       1 <0>        -0.0241
     13 C9         -3.1517   -0.4012   -0.2162 C.3       1 <0>        -0.0160
     14 C10        -1.5871    2.1475   -0.2923 C.3       1 <0>        -0.0459
     15 C11         2.8517    1.2702   -0.6636 C.2       1 <0>        -0.0255
     16 C12         1.1966   -0.8916   -2.1121 C.3       1 <0>        -0.0549
     17 C13        -3.0591    2.1285   -0.6896 C.3       1 <0>        -0.0308
     18 C14        -3.8046    0.9682   -0.0783 C.2       1 <0>        -0.0629
     19 C15        -3.8712   -1.4665    0.6367 C.3       1 <0>        -0.0392
     20 C16         3.7927   -1.0883   -0.7729 C.2       1 <0>         0.1783
     21 C17        -5.3836   -1.3524    0.5612 C.3       1 <0>         0.0104
     22 C18        -4.9952    1.1743    0.5071 C.2       1 <0>        -0.0197
     23 C19         3.9736    1.9799   -0.8402 C.2       1 <0>        -0.0953
     24 C20        -5.8201    0.0321    0.9634 C.2       1 <0>         0.1561
     25 C21         3.7375   -2.5318   -0.3513 C.3       1 <0>        -0.0017
     26 C22         4.1476    0.2797    1.6470 C.2       1 <0>         0.3052
     27 C23         3.9946    0.8808    3.0111 C.3       1 <0>         0.0333
     28 H1          0.6191    0.9532    0.8393 H         1 <0>         0.0313
     29 H2         -1.0329    0.6404   -1.6978 H         1 <0>         0.0307
     30 H3         -1.5661   -0.1050    1.2238 H         1 <0>         0.0309
     31 H4          0.7418   -1.4707    1.2946 H         1 <0>         0.0272
     32 H5          1.0201   -2.6218   -0.0007 H         1 <0>         0.0272
     33 H6         -1.1121   -2.0769   -1.0590 H         1 <0>         0.0268
     34 H7         -1.3457   -2.4460    0.6386 H         1 <0>         0.0268
     35 H8          1.3605    2.8273   -0.3793 H         1 <0>         0.0314
     36 H9          1.2665    1.9851   -1.9499 H         1 <0>         0.0314
     37 H10        -3.2413   -0.6928   -1.2722 H         1 <0>         0.0349
     38 H11        -1.0896    2.9617   -0.8314 H         1 <0>         0.0271
     39 H12        -1.4926    2.3678    0.7788 H         1 <0>         0.0271
     40 H13         1.7282   -0.1720   -2.7432 H         1 <0>         0.0237
     41 H14         1.6367   -1.8744   -2.3086 H         1 <0>         0.0237
     42 H15         0.1702   -0.9377   -2.4842 H         1 <0>         0.0237
     43 H16        -3.1376    2.0517   -1.7817 H         1 <0>         0.0310
     44 H17        -3.5131    3.0873   -0.4108 H         1 <0>         0.0310
     45 H18        -3.5616   -1.3706    1.6864 H         1 <0>         0.0275
     46 H19        -3.5814   -2.4712    0.3085 H         1 <0>         0.0275
     47 H20        -5.8385   -2.0777    1.2444 H         1 <0>         0.0345
     48 H21        -5.7490   -1.5547   -0.4513 H         1 <0>         0.0345
     49 H22        -5.4284    2.1638    0.6029 H         1 <0>         0.0652
     50 H23         4.9809    1.6081   -0.7339 H         1 <0>         0.0536
     51 H24         3.9002    3.0162   -1.1607 H         1 <0>         0.0536
     52 H25         3.4290   -2.6323    0.6913 H         1 <0>         0.0307
     53 H26         3.0636   -3.0921   -1.0009 H         1 <0>         0.0307
     54 H27         4.7407   -2.9611   -0.4375 H         1 <0>         0.0307
     55 H28         3.6574    0.1171    3.7162 H         1 <0>         0.0342
     56 H29         3.2837    1.7100    2.9722 H         1 <0>         0.0342
     57 H30         4.9611    1.2660    3.3484 H         1 <0>         0.0342
@<TRIPOS>BOND
     1    1    9 1
     2    1   26 1
     3    2   20 2
     4    3   24 2
     5    4   26 2
     6    5    6 1
     7    5    9 1
     8    5   10 1
     9    5   16 1
    10    6    7 1
    11    6   12 1
    12    6   28 1
    13    7    8 1
    14    7   14 1
    15    7   29 1
    16    8   11 1
    17    8   13 1
    18    8   30 1
    19    9   15 1
    20    9   20 1
    21   10   11 1
    22   10   31 1
    23   10   32 1
    24   11   33 1
    25   11   34 1
    26   12   15 1
    27   12   35 1
    28   12   36 1
    29   13   18 1
    30   13   19 1
    31   13   37 1
    32   14   17 1
    33   14   38 1
    34   14   39 1
    35   15   23 2
    36   16   40 1
    37   16   41 1
    38   16   42 1
    39   17   18 1
    40   17   43 1
    41   17   44 1
    42   18   22 2
    43   19   21 1
    44   19   45 1
    45   19   46 1
    46   20   25 1
    47   21   24 1
    48   21   47 1
    49   21   48 1
    50   22   24 1
    51   22   49 1
    52   23   50 1
    53   23   51 1
    54   25   52 1
    55   25   53 1
    56   25   54 1
    57   26   27 1
    58   27   55 1
    59   27   56 1
    60   27   57 1
