@<TRIPOS>MOLECULE
DB14542
   61    64     0     0     0
SMALL
USER_CHARGES

@<TRIPOS>ATOM
      1 P1          6.2923    1.8747   -0.2973 P.3       1 <0>         0.4728
      2 O1          2.5674   -1.1988   -1.8839 O.3       1 <0>        -0.3804
      3 O2         -0.3028    1.5138    1.5234 O.3       1 <0>        -0.3915
      4 O3          4.5413   -2.0175    0.5905 O.2       1 <0>        -0.2919
      5 O4          5.6390    0.3966   -0.1626 O.3       1 <0>        -0.2790
      6 O5         -6.5405    1.7011   -1.7696 O.2       1 <0>        -0.2927
      7 O6          5.6841    2.6782    0.9675 O.3       1 <0>        -0.3026
      8 O7          5.5019    2.5104   -1.5567 O.3       1 <0>        -0.3026
      9 O8          7.7885    1.8959   -0.4118 O.2       1 <0>        -0.2275
     10 C1          1.2975   -0.7791    0.1793 C.3       1 <0>         0.0091
     11 C2          0.1261   -1.6499   -0.3243 C.3       1 <0>        -0.0292
     12 C3         -1.2418   -1.2180    0.2250 C.3       1 <0>        -0.0314
     13 C4         -1.5180    0.2571   -0.2132 C.3       1 <0>        -0.0028
     14 C5          2.4803   -1.5234   -0.4996 C.3       1 <0>         0.1315
     15 C6          1.0413    0.6638   -0.3018 C.3       1 <0>        -0.0179
     16 C7         -2.9557    0.7674    0.2113 C.3       1 <0>        -0.0049
     17 C8         -0.3348    1.2132    0.1354 C.3       1 <0>         0.0597
     18 C9          0.6078   -3.0751   -0.0661 C.3       1 <0>        -0.0463
     19 C10         2.1240   -3.0201   -0.3482 C.3       1 <0>        -0.0162
     20 C11        -2.3465   -2.1472   -0.3022 C.3       1 <0>        -0.0459
     21 C12         1.4739   -0.8214    1.7226 C.3       1 <0>        -0.0562
     22 C13        -4.0053   -0.2651   -0.2225 C.2       1 <0>        -0.0600
     23 C14        -3.7273   -1.7000    0.1532 C.3       1 <0>        -0.0305
     24 C15        -3.2164    2.1242   -0.5056 C.3       1 <0>        -0.0366
     25 C16        -3.1162    0.9665    1.7355 C.3       1 <0>        -0.0555
     26 C17         3.8237   -1.1678    0.0650 C.2       1 <0>         0.1910
     27 C18        -4.6799    2.5362   -0.5144 C.3       1 <0>         0.0107
     28 C19        -5.1426    0.0421   -0.8683 C.2       1 <0>        -0.0194
     29 C20        -5.5220    1.4496   -1.1292 C.2       1 <0>         0.1561
     30 C21         4.2361    0.2842   -0.0499 C.3       1 <0>         0.1200
     31 H1          0.0626   -1.5470   -1.4205 H         1 <0>         0.0310
     32 H2         -1.2430   -1.2871    1.3174 H         1 <0>         0.0307
     33 H3         -1.5296    0.2261   -1.3160 H         1 <0>         0.0337
     34 H4          1.0828    0.7102   -1.3969 H         1 <0>         0.0297
     35 H5          1.8143    1.3385    0.0769 H         1 <0>         0.0297
     36 H6         -0.4855    2.1661   -0.3846 H         1 <0>         0.0596
     37 H7          0.1123   -3.8013   -0.7186 H         1 <0>         0.0269
     38 H8          0.4212   -3.3789    0.9701 H         1 <0>         0.0269
     39 H9          2.6477   -3.5134    0.4777 H         1 <0>         0.0297
     40 H10         2.3508   -3.5815   -1.2619 H         1 <0>         0.0297
     41 H11        -2.1766   -3.1711    0.0511 H         1 <0>         0.0271
     42 H12        -2.3172   -2.1822   -1.3991 H         1 <0>         0.0271
     43 H13         1.8379   -1.7917    2.0763 H         1 <0>         0.0236
     44 H14         2.1931   -0.0690    2.0614 H         1 <0>         0.0236
     45 H15         0.5449   -0.6331    2.2643 H         1 <0>         0.0236
     46 H16        -3.8081   -1.8071    1.2419 H         1 <0>         0.0310
     47 H17        -4.4757   -2.3769   -0.2771 H         1 <0>         0.0310
     48 H18        -2.8784    2.0580   -1.5494 H         1 <0>         0.0278
     49 H19        -2.6297    2.9259   -0.0412 H         1 <0>         0.0278
     50 H20        -2.7109    0.1268    2.3083 H         1 <0>         0.0238
     51 H21        -2.6215    1.8785    2.0834 H         1 <0>         0.0238
     52 H22        -4.1713    1.0649    2.0194 H         1 <0>         0.0238
     53 H23         3.2187   -1.7923   -2.2955 H         1 <0>         0.2108
     54 H24        -4.7937    3.4462   -1.1139 H         1 <0>         0.0345
     55 H25        -5.0515    2.7431    0.4941 H         1 <0>         0.0345
     56 H26         0.4138    2.1537    1.6729 H         1 <0>         0.2098
     57 H27        -5.8558   -0.7186   -1.1677 H         1 <0>         0.0652
     58 H28         3.9022    0.8149    0.8439 H         1 <0>         0.0646
     59 H29         3.7912    0.7313   -0.9408 H         1 <0>         0.0646
     60 H30         5.9962    3.5910    1.1443 H         1 <0>         0.2220
     61 H31         5.7835    3.3843   -1.9016 H         1 <0>         0.2220
@<TRIPOS>BOND
     1    1    5 1
     2    1    7 1
     3    1    8 1
     4    1    9 2
     5    2   14 1
     6    2   53 1
     7    3   17 1
     8    3   56 1
     9    4   26 2
    10    5   30 1
    11    6   29 2
    12    7   60 1
    13    8   61 1
    14   10   11 1
    15   10   14 1
    16   10   15 1
    17   10   21 1
    18   11   12 1
    19   11   18 1
    20   11   31 1
    21   12   13 1
    22   12   20 1
    23   12   32 1
    24   13   16 1
    25   13   17 1
    26   13   33 1
    27   14   19 1
    28   14   26 1
    29   15   17 1
    30   15   34 1
    31   15   35 1
    32   16   22 1
    33   16   24 1
    34   16   25 1
    35   17   36 1
    36   18   19 1
    37   18   37 1
    38   18   38 1
    39   19   39 1
    40   19   40 1
    41   20   23 1
    42   20   41 1
    43   20   42 1
    44   21   43 1
    45   21   44 1
    46   21   45 1
    47   22   23 1
    48   22   28 2
    49   23   46 1
    50   23   47 1
    51   24   27 1
    52   24   48 1
    53   24   49 1
    54   25   50 1
    55   25   51 1
    56   25   52 1
    57   26   30 1
    58   27   29 1
    59   27   54 1
    60   27   55 1
    61   28   29 1
    62   28   57 1
    63   30   58 1
    64   30   59 1
