@<TRIPOS>MOLECULE
DB14725
   51    54     0     0     0
SMALL
USER_CHARGES

@<TRIPOS>ATOM
      1 S1          0.3391   -0.0107    1.4726 S.3       1 <0>        -0.1311
      2 S2         -4.1162    0.6293   -0.2076 S.3       1 <0>        -0.0801
      3 O1          0.3841   -3.7218   -1.3272 O.2       1 <0>        -0.2731
      4 O2         -2.6151   -4.0050   -0.3284 O.3       1 <0>        -0.4763
      5 O3          4.2850   -1.6192    1.1960 O.2       1 <0>        -0.2713
      6 O4          5.8370   -0.4833   -0.7787 O.3       1 <0>        -0.4492
      7 O5         -3.1851   -2.2055   -1.6195 O.2       1 <0>        -0.2437
      8 O6          5.4887   -1.9801   -2.5104 O.2       1 <0>        -0.2546
      9 N1         -0.4567   -2.2722    0.3319 N.am      1 <0>        -0.2490
     10 N2          2.4509   -1.4577   -0.2181 N.am      1 <0>        -0.2984
     11 N3         -6.6168    1.7226   -0.6619 N.pl3     1 <0>        -0.2233
     12 N4         -6.6002    0.3071    0.9810 N.2       1 <0>        -0.1015
     13 N5         -7.8790    1.6899   -0.2119 N.2       1 <0>        -0.0435
     14 N6         -7.8628    0.8221    0.7924 N.2       1 <0>        -0.0222
     15 C1          0.4434   -1.8123    1.3736 C.3       1 <0>         0.1042
     16 C2          1.5853   -2.3871    0.5072 C.3       1 <0>         0.1284
     17 C3          0.4491   -2.9898   -0.3674 C.2       1 <0>         0.2440
     18 C4         -1.7748   -1.9506    0.2770 C.2       1 <0>         0.1228
     19 C5         -2.2883   -0.9425    1.0216 C.2       1 <0>        -0.0211
     20 C6         -1.4360   -0.0255    1.8960 C.3       1 <0>         0.0196
     21 C7         -3.7526   -0.5781    1.0774 C.3       1 <0>         0.0253
     22 C8          3.7464   -1.1495    0.1959 C.2       1 <0>         0.2592
     23 C9         -2.6059   -2.7027   -0.6748 C.2       1 <0>         0.3514
     24 C10         4.4516   -0.1748   -0.7369 C.3       1 <0>         0.2030
     25 C11         4.2837    1.2551   -0.2798 C.ar      1 <0>         0.0017
     26 C12        -5.8455    0.8775    0.0703 C.cat     1 <0>         0.2094
     27 C13         3.2000    2.0088   -0.7309 C.ar      1 <0>        -0.0546
     28 C14         5.2119    1.8220    0.5938 C.ar      1 <0>        -0.0546
     29 C15         3.0446    3.3291   -0.3088 C.ar      1 <0>        -0.0614
     30 C16         5.0563    3.1422    1.0159 C.ar      1 <0>        -0.0614
     31 C17         6.2108   -1.4013   -1.7139 C.2       1 <0>         0.2953
     32 C18         3.9726    3.8957    0.5646 C.ar      1 <0>        -0.0617
     33 C19        -6.2600    2.5742   -1.7682 C.3       1 <0>         0.0346
     34 H1          0.3002   -2.3381    2.3250 H         1 <0>         0.0644
     35 H2          2.1608   -3.1714    1.0149 H         1 <0>         0.0622
     36 H3         -1.7764    1.0112    1.8056 H         1 <0>         0.0423
     37 H4         -1.5468   -0.3206    2.9453 H         1 <0>         0.0423
     38 H5          2.0999   -1.0014   -1.0570 H         1 <0>         0.1497
     39 H6         -4.0085   -0.1767    2.0647 H         1 <0>         0.0427
     40 H7         -4.3764   -1.4671    0.9320 H         1 <0>         0.0427
     41 H8          4.0288   -0.2517   -1.7476 H         1 <0>         0.0885
     42 H9         -3.1599   -4.5457   -0.9391 H         1 <0>         0.2954
     43 H10         2.4686    1.5795   -1.4104 H         1 <0>         0.0622
     44 H11         6.0575    1.2537    0.9714 H         1 <0>         0.0622
     45 H12         2.2002    3.9155   -0.6593 H         1 <0>         0.0618
     46 H13         5.7770    3.5829    1.6987 H         1 <0>         0.0618
     47 H14         7.2991   -1.5500   -1.6416 H         1 <0>         0.1512
     48 H15         3.8509    4.9234    0.8943 H         1 <0>         0.0618
     49 H16        -5.5005    3.2834   -1.4304 H         1 <0>         0.0474
     50 H17        -7.1444    3.1177   -2.1109 H         1 <0>         0.0474
     51 H18        -5.8755    1.9494   -2.5780 H         1 <0>         0.0474
@<TRIPOS>BOND
     1    1   15 1
     2    1   20 1
     3    2   21 1
     4    2   26 1
     5    3   17 2
     6    4   23 1
     7    4   42 1
     8    5   22 2
     9    6   24 1
    10    6   31 1
    11    7   23 2
    12    8   31 2
    13    9   15 1
    14    9   17 am
    15    9   18 1
    16   10   16 1
    17   10   22 am
    18   10   38 1
    19   11   13 1
    20   11   26 2
    21   11   33 1
    22   12   14 2
    23   12   26 1
    24   13   14 1
    25   15   16 1
    26   15   34 1
    27   16   17 1
    28   16   35 1
    29   18   19 2
    30   18   23 1
    31   19   20 1
    32   19   21 1
    33   20   36 1
    34   20   37 1
    35   21   39 1
    36   21   40 1
    37   22   24 1
    38   24   25 1
    39   24   41 1
    40   25   27 ar
    41   25   28 ar
    42   27   29 ar
    43   27   43 1
    44   28   30 ar
    45   28   44 1
    46   29   32 ar
    47   29   45 1
    48   30   32 ar
    49   30   46 1
    50   31   47 1
    51   32   48 1
    52   33   49 1
    53   33   50 1
    54   33   51 1
