@<TRIPOS>MOLECULE
DB14512
   65    69     0     0     0
SMALL
USER_CHARGES

@<TRIPOS>ATOM
      1 Cl1        -1.5074   -1.6737   -1.1701 Cl        1 <0>        -0.1139
      2 Cl2         4.5599    3.2701   -2.2147 Cl        1 <0>        -0.1172
      3 O1          2.7088   -0.0046   -0.6391 O.3       1 <0>        -0.4439
      4 O2         -1.9482    2.3239   -1.2271 O.3       1 <0>        -0.3900
      5 O3          3.8125    2.7608    0.6079 O.2       1 <0>        -0.2919
      6 O4          4.9037    0.4623   -0.1659 O.2       1 <0>        -0.2414
      7 O5         -6.2100   -3.2001   -1.2657 O.2       1 <0>        -0.2879
      8 O6          5.5251   -2.1825   -0.7036 O.3       1 <0>        -0.4564
      9 C1          0.7027    1.2970    0.0223 C.3       1 <0>         0.0206
     10 C2          0.1580    0.1376    0.8885 C.3       1 <0>        -0.0266
     11 C3         -1.3780    0.1121    0.9722 C.3       1 <0>        -0.0146
     12 C4         -2.0172   -0.0275   -0.4670 C.3       1 <0>         0.0864
     13 C5          2.2290    1.0403    0.1984 C.3       1 <0>         0.1803
     14 C6          0.9680    0.2430    2.1806 C.3       1 <0>        -0.0426
     15 C7          0.1427    1.1242   -1.4071 C.3       1 <0>        -0.0154
     16 C8          2.3733    0.7153    1.7177 C.3       1 <0>         0.0041
     17 C9         -1.4048    1.0290   -1.4534 C.3       1 <0>         0.0762
     18 C10        -3.6116   -0.0399   -0.3669 C.3       1 <0>         0.0294
     19 C11        -1.8775   -0.9748    1.9438 C.3       1 <0>        -0.0445
     20 C12         0.3399    2.7046    0.5770 C.3       1 <0>        -0.0551
     21 C13        -3.4019   -1.0290    2.0135 C.3       1 <0>        -0.0301
     22 C14        -4.0196   -1.1270    0.6401 C.2       1 <0>        -0.0545
     23 C15         3.0976    2.1895   -0.2139 C.2       1 <0>         0.1918
     24 C16         3.4584   -0.3030    2.0555 C.3       1 <0>        -0.0583
     25 C17        -4.2305    1.2899    0.1355 C.3       1 <0>        -0.0506
     26 C18        -4.2474   -0.2768   -1.7317 C.2       1 <0>        -0.0688
     27 C19        -4.8516   -2.1377    0.3418 C.2       1 <0>        -0.0148
     28 C20         3.0240    2.5774   -1.6730 C.3       1 <0>         0.0849
     29 C21        -5.0770   -1.2820   -2.0289 C.2       1 <0>        -0.0180
     30 C22         4.0337   -0.3347   -0.5011 C.2       1 <0>         0.3758
     31 C23        -5.4429   -2.2792   -1.0054 C.2       1 <0>         0.1787
     32 C24         4.2614   -1.7481   -0.8057 C.2       1 <0>         0.2112
     33 C25         3.3932   -2.7100   -1.1805 C.2       1 <0>        -0.0093
     34 C26         4.1845   -3.8735   -1.3322 C.2       1 <0>        -0.0231
     35 C27         5.4736   -3.5005   -1.0306 C.2       1 <0>         0.0929
     36 H1          0.4742   -0.8140    0.4365 H         1 <0>         0.0311
     37 H2         -1.7019    1.0655    1.4017 H         1 <0>         0.0322
     38 H3          0.5264    0.9797    2.8620 H         1 <0>         0.0272
     39 H4          1.0007   -0.7148    2.7107 H         1 <0>         0.0272
     40 H5          0.5594    0.2213   -1.8680 H         1 <0>         0.0297
     41 H6          0.4515    1.9644   -2.0366 H         1 <0>         0.0297
     42 H7          2.5921    1.6202    2.2995 H         1 <0>         0.0341
     43 H8         -1.6853    0.7679   -2.4813 H         1 <0>         0.0611
     44 H9         -1.4958   -0.7758    2.9525 H         1 <0>         0.0272
     45 H10        -1.4851   -1.9585    1.6588 H         1 <0>         0.0272
     46 H11         0.8520    2.9351    1.5163 H         1 <0>         0.0237
     47 H12         0.6163    3.4899   -0.1343 H         1 <0>         0.0237
     48 H13        -0.7257    2.8247    0.7803 H         1 <0>         0.0237
     49 H14        -3.7808   -0.1330    2.5191 H         1 <0>         0.0310
     50 H15        -3.6945   -1.8779    2.6438 H         1 <0>         0.0310
     51 H16         3.2970   -1.2859    1.6103 H         1 <0>         0.0234
     52 H17         4.4759    0.0721    1.9482 H         1 <0>         0.0234
     53 H18         3.3889   -0.5008    3.1358 H         1 <0>         0.0234
     54 H19        -3.7154    1.6974    1.0097 H         1 <0>         0.0242
     55 H20        -4.2361    2.0685   -0.6346 H         1 <0>         0.0242
     56 H21        -5.2813    1.1512    0.4245 H         1 <0>         0.0242
     57 H22        -4.0233    0.4378   -2.5207 H         1 <0>         0.0582
     58 H23        -1.5910    2.9203   -1.9068 H         1 <0>         0.2099
     59 H24        -5.1155   -2.8946    1.0729 H         1 <0>         0.0656
     60 H25         2.2525    3.3372   -1.8101 H         1 <0>         0.0509
     61 H26         2.8230    1.7243   -2.3218 H         1 <0>         0.0509
     62 H27        -5.5027   -1.3873   -3.0200 H         1 <0>         0.0653
     63 H28         2.3269   -2.6209   -1.3326 H         1 <0>         0.0657
     64 H29         3.8563   -4.8605   -1.6244 H         1 <0>         0.0649
     65 H30         6.4170   -4.0262   -1.0028 H         1 <0>         0.1029
@<TRIPOS>BOND
     1    1   12 1
     2    2   28 1
     3    3   13 1
     4    3   30 1
     5    4   17 1
     6    4   58 1
     7    5   23 2
     8    6   30 2
     9    7   31 2
    10    8   32 1
    11    8   35 1
    12    9   10 1
    13    9   13 1
    14    9   15 1
    15    9   20 1
    16   10   11 1
    17   10   14 1
    18   10   36 1
    19   11   12 1
    20   11   19 1
    21   11   37 1
    22   12   17 1
    23   12   18 1
    24   13   16 1
    25   13   23 1
    26   14   16 1
    27   14   38 1
    28   14   39 1
    29   15   17 1
    30   15   40 1
    31   15   41 1
    32   16   24 1
    33   16   42 1
    34   17   43 1
    35   18   22 1
    36   18   25 1
    37   18   26 1
    38   19   21 1
    39   19   44 1
    40   19   45 1
    41   20   46 1
    42   20   47 1
    43   20   48 1
    44   21   22 1
    45   21   49 1
    46   21   50 1
    47   22   27 2
    48   23   28 1
    49   24   51 1
    50   24   52 1
    51   24   53 1
    52   25   54 1
    53   25   55 1
    54   25   56 1
    55   26   29 2
    56   26   57 1
    57   27   31 1
    58   27   59 1
    59   28   60 1
    60   28   61 1
    61   29   31 1
    62   29   62 1
    63   30   32 1
    64   32   33 2
    65   33   34 1
    66   33   63 1
    67   34   35 2
    68   34   64 1
    69   35   65 1
