@<TRIPOS>MOLECULE
DB14677
   68    71     0     0     0
SMALL
USER_CHARGES

@<TRIPOS>ATOM
      1 O1          2.4277   -0.9936    0.5766 O.3       1 <0>        -0.4498
      2 O2          3.2858   -3.5099   -1.3339 O.2       1 <0>        -0.2934
      3 O3         -6.6419    2.5323    1.4701 O.2       1 <0>        -0.2927
      4 O4          4.5601   -1.2293   -0.2704 O.2       1 <0>        -0.2508
      5 C1          0.3570   -1.8081   -0.4565 C.3       1 <0>         0.0179
      6 C2          0.0194   -0.3896   -0.9734 C.3       1 <0>        -0.0283
      7 C3         -1.4861   -0.1515   -1.1218 C.3       1 <0>        -0.0339
      8 C4         -2.1666   -0.3347    0.2660 C.3       1 <0>        -0.0314
      9 C5          1.9050   -1.7427   -0.5164 C.3       1 <0>         0.1759
     10 C6         -0.2692   -1.9520    0.9403 C.3       1 <0>        -0.0430
     11 C7          0.9095   -0.2383   -2.2034 C.3       1 <0>        -0.0453
     12 C8         -1.7850   -1.6857    0.9219 C.3       1 <0>        -0.0488
     13 C9          2.2021   -0.9962   -1.8361 C.3       1 <0>        -0.0050
     14 C10        -3.7099   -0.1341    0.1649 C.3       1 <0>        -0.0160
     15 C11        -1.7938    1.2475   -1.6706 C.3       1 <0>        -0.0460
     16 C12        -0.1687   -2.9431   -1.3784 C.3       1 <0>        -0.0552
     17 C13        -3.2973    1.4482   -1.8245 C.3       1 <0>        -0.0308
     18 C14        -4.0485    1.1696   -0.5463 C.2       1 <0>        -0.0629
     19 C15        -4.3559   -0.2074    1.5640 C.3       1 <0>        -0.0392
     20 C16         2.5747   -3.0817   -0.4262 C.2       1 <0>         0.1741
     21 C17        -5.7891    0.2943    1.5728 C.3       1 <0>         0.0104
     22 C18        -4.9850    2.0327   -0.1210 C.2       1 <0>        -0.0197
     23 C19         2.3359   -3.8745    0.8303 C.3       1 <0>        -0.0020
     24 C20        -5.8497    1.7000    1.0343 C.2       1 <0>         0.1561
     25 C21         3.7841   -0.8091    0.5769 C.2       1 <0>         0.3080
     26 C22         4.1720    0.0280    1.7756 C.3       1 <0>         0.0450
     27 C23         3.4441    1.3710    1.8332 C.3       1 <0>        -0.0430
     28 C24         3.7167    2.2382    0.6002 C.3       1 <0>        -0.0528
     29 C25         3.0031    3.5863    0.7032 C.3       1 <0>        -0.0559
     30 C26         3.3055    4.4700   -0.4965 C.3       1 <0>        -0.0653
     31 H1          0.3822    0.3489   -0.2394 H         1 <0>         0.0310
     32 H2         -1.9066   -0.8778   -1.8277 H         1 <0>         0.0307
     33 H3         -1.7733    0.4536    0.9269 H         1 <0>         0.0309
     34 H4         -0.1087   -2.9521    1.3524 H         1 <0>         0.0272
     35 H5          0.1897   -1.2468    1.6442 H         1 <0>         0.0272
     36 H6          0.4454   -0.6796   -3.0925 H         1 <0>         0.0270
     37 H7          1.1174    0.8134   -2.4271 H         1 <0>         0.0270
     38 H8         -2.1336   -1.7073    1.9608 H         1 <0>         0.0268
     39 H9         -2.3022   -2.5045    0.4085 H         1 <0>         0.0268
     40 H10         2.4470   -1.6711   -2.6640 H         1 <0>         0.0308
     41 H11         3.0092   -0.2616   -1.7740 H         1 <0>         0.0308
     42 H12        -4.1259   -0.9483   -0.4454 H         1 <0>         0.0349
     43 H13        -1.3812    2.0160   -1.0044 H         1 <0>         0.0271
     44 H14        -1.3198    1.3852   -2.6493 H         1 <0>         0.0271
     45 H15         0.0308   -3.9304   -0.9504 H         1 <0>         0.0237
     46 H16         0.2938   -2.9245   -2.3704 H         1 <0>         0.0237
     47 H17        -1.2493   -2.8941   -1.5353 H         1 <0>         0.0237
     48 H18        -3.6748    0.7701   -2.6007 H         1 <0>         0.0310
     49 H19        -3.4830    2.4677   -2.1837 H         1 <0>         0.0310
     50 H20        -4.3467   -1.2403    1.9302 H         1 <0>         0.0275
     51 H21        -3.7681    0.3896    2.2744 H         1 <0>         0.0275
     52 H22        -6.4389   -0.3429    0.9634 H         1 <0>         0.0345
     53 H23        -6.1692    0.2939    2.6001 H         1 <0>         0.0345
     54 H24        -5.1940    2.9611   -0.6414 H         1 <0>         0.0652
     55 H25         3.1925   -4.5373    0.9899 H         1 <0>         0.0307
     56 H26         1.4412   -4.4900    0.7305 H         1 <0>         0.0307
     57 H27         2.2620   -3.2309    1.7093 H         1 <0>         0.0307
     58 H28         5.2550    0.1936    1.7355 H         1 <0>         0.0377
     59 H29         3.9694   -0.5578    2.6791 H         1 <0>         0.0377
     60 H30         3.7680    1.9050    2.7347 H         1 <0>         0.0270
     61 H31         2.3639    1.2087    1.9326 H         1 <0>         0.0270
     62 H32         4.7969    2.3997    0.4993 H         1 <0>         0.0265
     63 H33         3.3797    1.7256   -0.3075 H         1 <0>         0.0265
     64 H34         1.9203    3.4290    0.7720 H         1 <0>         0.0263
     65 H35         3.3150    4.1048    1.6172 H         1 <0>         0.0263
     66 H36         4.3784    4.6731   -0.5739 H         1 <0>         0.0230
     67 H37         2.9775    3.9940   -1.4262 H         1 <0>         0.0230
     68 H38         2.7840    5.4277   -0.4028 H         1 <0>         0.0230
@<TRIPOS>BOND
     1    1    9 1
     2    1   25 1
     3    2   20 2
     4    3   24 2
     5    4   25 2
     6    5    6 1
     7    5    9 1
     8    5   10 1
     9    5   16 1
    10    6    7 1
    11    6   11 1
    12    6   31 1
    13    7    8 1
    14    7   15 1
    15    7   32 1
    16    8   12 1
    17    8   14 1
    18    8   33 1
    19    9   13 1
    20    9   20 1
    21   10   12 1
    22   10   34 1
    23   10   35 1
    24   11   13 1
    25   11   36 1
    26   11   37 1
    27   12   38 1
    28   12   39 1
    29   13   40 1
    30   13   41 1
    31   14   18 1
    32   14   19 1
    33   14   42 1
    34   15   17 1
    35   15   43 1
    36   15   44 1
    37   16   45 1
    38   16   46 1
    39   16   47 1
    40   17   18 1
    41   17   48 1
    42   17   49 1
    43   18   22 2
    44   19   21 1
    45   19   50 1
    46   19   51 1
    47   20   23 1
    48   21   24 1
    49   21   52 1
    50   21   53 1
    51   22   24 1
    52   22   54 1
    53   23   55 1
    54   23   56 1
    55   23   57 1
    56   25   26 1
    57   26   27 1
    58   26   58 1
    59   26   59 1
    60   27   28 1
    61   27   60 1
    62   27   61 1
    63   28   29 1
    64   28   62 1
    65   28   63 1
    66   29   30 1
    67   29   64 1
    68   29   65 1
    69   30   66 1
    70   30   67 1
    71   30   68 1
