@<TRIPOS>MOLECULE
DB14543
   75    78     0     0     0
SMALL
USER_CHARGES

@<TRIPOS>ATOM
      1 O1         -1.6229    1.4343   -0.3715 O.3       1 <0>        -0.4496
      2 O2          1.7714   -2.3074    0.9262 O.3       1 <0>        -0.3915
      3 O3         -3.1296    0.9120    2.4825 O.2       1 <0>        -0.2895
      4 O4         -4.3630   -0.9782    0.8994 O.3       1 <0>        -0.4568
      5 O5          7.3402   -0.5517   -3.0354 O.2       1 <0>        -0.2927
      6 O6         -3.3685    2.7513    0.3640 O.2       1 <0>        -0.2508
      7 O7         -4.2354   -2.9590   -0.2772 O.2       1 <0>        -0.2509
      8 C1         -0.0177    0.2244    1.0444 C.3       1 <0>         0.0204
      9 C2          1.0561    1.3096    0.8128 C.3       1 <0>        -0.0282
     10 C3          2.4948    0.7756    0.8808 C.3       1 <0>        -0.0313
     11 C4          2.6775   -0.3218   -0.2176 C.3       1 <0>        -0.0028
     12 C5         -1.2937    1.1080    0.9754 C.3       1 <0>         0.1796
     13 C6          0.1383   -0.8264   -0.0739 C.3       1 <0>        -0.0168
     14 C7          4.1625   -0.8646   -0.3057 C.3       1 <0>        -0.0049
     15 C8          1.5645   -1.4142   -0.1589 C.3       1 <0>         0.0597
     16 C9          0.6392    2.4286    1.7635 C.3       1 <0>        -0.0453
     17 C10        -0.9032    2.3986    1.7319 C.3       1 <0>        -0.0048
     18 C11         3.4994    1.9185    0.6659 C.3       1 <0>        -0.0459
     19 C12         0.0772   -0.4434    2.4442 C.3       1 <0>        -0.0551
     20 C13         5.1299    0.3245   -0.3831 C.2       1 <0>        -0.0600
     21 C14         4.9342    1.4140    0.6425 C.3       1 <0>        -0.0305
     22 C15         4.2826   -1.7326   -1.5921 C.3       1 <0>        -0.0366
     23 C16         4.5836   -1.7150    0.9142 C.3       1 <0>        -0.0555
     24 C17        -2.5217    0.4422    1.5218 C.2       1 <0>         0.2142
     25 C18         5.7186   -1.9915   -2.0193 C.3       1 <0>         0.0107
     26 C19         6.1350    0.4218   -1.2693 C.2       1 <0>        -0.0194
     27 C20         6.4507   -0.6877   -2.1979 C.2       1 <0>         0.1561
     28 C21        -2.9608   -0.8289    0.8266 C.3       1 <0>         0.1542
     29 C22        -2.6923    2.2733   -0.5364 C.2       1 <0>         0.3080
     30 C23        -2.9080    2.5171   -2.0127 C.3       1 <0>         0.0447
     31 C24        -4.3797    2.7517   -2.3442 C.3       1 <0>        -0.0458
     32 C25        -4.8863   -2.0998    0.3012 C.2       1 <0>         0.3072
     33 C26        -5.2306    1.5435   -1.9888 C.3       1 <0>        -0.0648
     34 C27        -6.3878   -2.1095    0.4682 C.3       1 <0>         0.0421
     35 C28        -7.0283   -3.3190   -0.1900 C.3       1 <0>        -0.0552
     36 H1          0.9271    1.7146   -0.2048 H         1 <0>         0.0310
     37 H2          2.6863    0.3467    1.8695 H         1 <0>         0.0307
     38 H3          2.4976    0.2018   -1.1719 H         1 <0>         0.0337
     39 H4         -0.5633   -1.6523    0.0740 H         1 <0>         0.0297
     40 H5         -0.0933   -0.3789   -1.0481 H         1 <0>         0.0297
     41 H6          1.6141   -2.0186   -1.0717 H         1 <0>         0.0596
     42 H7          1.0224    3.4027    1.4418 H         1 <0>         0.0270
     43 H8          1.0061    2.2480    2.7802 H         1 <0>         0.0270
     44 H9         -1.2389    3.3226    1.2524 H         1 <0>         0.0308
     45 H10        -1.2671    2.4215    2.7651 H         1 <0>         0.0308
     46 H11         3.2803    2.4401   -0.2751 H         1 <0>         0.0271
     47 H12         3.4026    2.6597    1.4678 H         1 <0>         0.0271
     48 H13        -0.2115    0.2361    3.2530 H         1 <0>         0.0237
     49 H14         1.0846   -0.7881    2.6858 H         1 <0>         0.0237
     50 H15        -0.5787   -1.3171    2.5133 H         1 <0>         0.0237
     51 H16         5.6025    2.2633    0.4543 H         1 <0>         0.0310
     52 H17         5.2039    1.0263    1.6326 H         1 <0>         0.0310
     53 H18         3.7784   -2.6970   -1.4563 H         1 <0>         0.0278
     54 H19         3.7691   -1.2289   -2.4233 H         1 <0>         0.0278
     55 H20         4.1488   -2.7188    0.8830 H         1 <0>         0.0238
     56 H21         5.6710   -1.8551    0.9509 H         1 <0>         0.0238
     57 H22         4.2914   -1.2531    1.8623 H         1 <0>         0.0238
     58 H23         1.0860   -2.9954    0.8801 H         1 <0>         0.2098
     59 H24         6.2579   -2.6021   -1.2885 H         1 <0>         0.0345
     60 H25         5.7185   -2.5247   -2.9764 H         1 <0>         0.0345
     61 H26         6.7921    1.2844   -1.2992 H         1 <0>         0.0652
     62 H27        -2.6807   -0.7957   -0.2299 H         1 <0>         0.0780
     63 H28        -2.4805   -1.6780    1.3207 H         1 <0>         0.0780
     64 H29        -2.5453    1.6516   -2.5796 H         1 <0>         0.0377
     65 H30        -2.3107    3.3884   -2.3005 H         1 <0>         0.0377
     66 H31        -4.7563    3.6306   -1.8084 H         1 <0>         0.0268
     67 H32        -4.4762    2.9592   -3.4159 H         1 <0>         0.0268
     68 H33        -4.8610    0.6404   -2.4855 H         1 <0>         0.0230
     69 H34        -5.2529    1.3575   -0.9111 H         1 <0>         0.0230
     70 H35        -6.2634    1.7059   -2.3142 H         1 <0>         0.0230
     71 H36        -6.7910   -1.1958    0.0187 H         1 <0>         0.0375
     72 H37        -6.6165   -2.1139    1.5391 H         1 <0>         0.0375
     73 H38        -8.1138   -3.2969   -0.0538 H         1 <0>         0.0235
     74 H39        -6.6476   -4.2501    0.2429 H         1 <0>         0.0235
     75 H40        -6.8181   -3.3390   -1.2646 H         1 <0>         0.0235
@<TRIPOS>BOND
     1    1   12 1
     2    1   29 1
     3    2   15 1
     4    2   58 1
     5    3   24 2
     6    4   28 1
     7    4   32 1
     8    5   27 2
     9    6   29 2
    10    7   32 2
    11    8    9 1
    12    8   12 1
    13    8   13 1
    14    8   19 1
    15    9   10 1
    16    9   16 1
    17    9   36 1
    18   10   11 1
    19   10   18 1
    20   10   37 1
    21   11   14 1
    22   11   15 1
    23   11   38 1
    24   12   17 1
    25   12   24 1
    26   13   15 1
    27   13   39 1
    28   13   40 1
    29   14   20 1
    30   14   22 1
    31   14   23 1
    32   15   41 1
    33   16   17 1
    34   16   42 1
    35   16   43 1
    36   17   44 1
    37   17   45 1
    38   18   21 1
    39   18   46 1
    40   18   47 1
    41   19   48 1
    42   19   49 1
    43   19   50 1
    44   20   21 1
    45   20   26 2
    46   21   51 1
    47   21   52 1
    48   22   25 1
    49   22   53 1
    50   22   54 1
    51   23   55 1
    52   23   56 1
    53   23   57 1
    54   24   28 1
    55   25   27 1
    56   25   59 1
    57   25   60 1
    58   26   27 1
    59   26   61 1
    60   28   62 1
    61   28   63 1
    62   29   30 1
    63   30   31 1
    64   30   64 1
    65   30   65 1
    66   31   33 1
    67   31   66 1
    68   31   67 1
    69   32   34 1
    70   33   68 1
    71   33   69 1
    72   33   70 1
    73   34   35 1
    74   34   71 1
    75   34   72 1
    76   35   73 1
    77   35   74 1
    78   35   75 1
