@<TRIPOS>MOLECULE
DB14175
   33    33     0     0     0
SMALL
USER_CHARGES

@<TRIPOS>ATOM
      1 O1          0.4339   -1.2667   -2.4935 O.2       1 <0>        -0.2960
      2 C1         -1.8568   -0.0146   -0.1278 C.3       1 <0>        -0.0490
      3 C2         -3.3282   -0.3503    0.1388 C.3       1 <0>        -0.0530
      4 C3         -0.8755   -1.1801    0.0673 C.3       1 <0>        -0.0246
      5 C4         -4.2623    0.8433   -0.0675 C.3       1 <0>        -0.0559
      6 C5          0.5713   -0.8106   -0.1474 C.2       1 <0>        -0.0076
      7 C6         -5.7112    0.4667    0.2010 C.3       1 <0>        -0.0653
      8 C7          1.4542   -0.3723    0.7681 C.2       1 <0>        -0.0484
      9 C8          2.8446    0.0109    0.5004 C.ar      1 <0>        -0.0247
     10 C9          1.1046   -0.8947   -1.5377 C.2       1 <0>         0.1463
     11 C10         3.8498   -0.9417    0.6032 C.ar      1 <0>        -0.0546
     12 C11         3.1382    1.3217    0.1478 C.ar      1 <0>        -0.0546
     13 C12         5.1720   -0.5771    0.3489 C.ar      1 <0>        -0.0612
     14 C13         4.4603    1.6863   -0.1065 C.ar      1 <0>        -0.0612
     15 C14         5.4771    0.7369   -0.0060 C.ar      1 <0>        -0.0617
     16 H1         -1.7620    0.3614   -1.1546 H         1 <0>         0.0268
     17 H2         -1.5618    0.8126    0.5311 H         1 <0>         0.0268
     18 H3         -3.6323   -1.1700   -0.5237 H         1 <0>         0.0265
     19 H4         -3.4299   -0.7187    1.1671 H         1 <0>         0.0265
     20 H5         -0.9890   -1.5619    1.0906 H         1 <0>         0.0314
     21 H6         -1.1531   -2.0144   -0.5883 H         1 <0>         0.0314
     22 H7         -3.9714    1.6620    0.6007 H         1 <0>         0.0263
     23 H8         -4.1697    1.2137   -1.0949 H         1 <0>         0.0263
     24 H9         -5.8421    0.1207    1.2312 H         1 <0>         0.0230
     25 H10        -6.3621    1.3332    0.0482 H         1 <0>         0.0230
     26 H11        -6.0412   -0.3294   -0.4740 H         1 <0>         0.0230
     27 H12         1.1410   -0.2689    1.8042 H         1 <0>         0.0627
     28 H13         2.1519   -0.6147   -1.7122 H         1 <0>         0.1078
     29 H14         3.6260   -1.9690    0.8791 H         1 <0>         0.0623
     30 H15         2.3554    2.0716    0.0663 H         1 <0>         0.0623
     31 H16         5.9639   -1.3162    0.4271 H         1 <0>         0.0618
     32 H17         4.6979    2.7094   -0.3828 H         1 <0>         0.0618
     33 H18         6.5065    1.0208   -0.2042 H         1 <0>         0.0618
@<TRIPOS>BOND
     1    1   10 2
     2    2    3 1
     3    2    4 1
     4    2   16 1
     5    2   17 1
     6    3    5 1
     7    3   18 1
     8    3   19 1
     9    4    6 1
    10    4   20 1
    11    4   21 1
    12    5    7 1
    13    5   22 1
    14    5   23 1
    15    6    8 2
    16    6   10 1
    17    7   24 1
    18    7   25 1
    19    7   26 1
    20    8    9 1
    21    8   27 1
    22    9   11 ar
    23    9   12 ar
    24   10   28 1
    25   11   13 ar
    26   11   29 1
    27   12   14 ar
    28   12   30 1
    29   13   15 ar
    30   13   31 1
    31   14   15 ar
    32   14   32 1
    33   15   33 1
