@<TRIPOS>MOLECULE
DB14726
   60    63     0     0     0
SMALL
USER_CHARGES

@<TRIPOS>ATOM
      1 O1          4.5781    0.7282   -2.5120 O.2       1 <0>        -0.2696
      2 O2          6.1103   -3.7951    1.7595 O.3       1 <0>        -0.4806
      3 O3          4.5569   -2.5475    2.8485 O.2       1 <0>        -0.2510
      4 N1         -1.1015   -1.4898   -1.0728 N.pl3     1 <0>        -0.3294
      5 N2         -0.5878    0.3378    0.0831 N.2       1 <0>        -0.2307
      6 N3          4.9121    0.4908   -0.1857 N.am      1 <0>        -0.2516
      7 N4         -3.8728    0.2416   -0.6181 N.pl3     1 <0>        -0.3367
      8 N5          6.1009    2.3933   -1.0645 N.ar      1 <0>        -0.2399
      9 N6         -9.8100    0.5949    1.8974 N.pl3     1 <0>        -0.2466
     10 N7        -10.0380    1.8095   -0.0860 N.2       1 <0>        -0.0994
     11 C1          0.2235   -1.1742   -1.2672 C.2       1 <0>         0.0686
     12 C2         -1.5569   -0.5635   -0.2594 C.cat     1 <0>         0.1277
     13 C3          0.5702   -0.0311   -0.5521 C.2       1 <0>         0.0901
     14 C4         -2.9549   -0.5237    0.2165 C.3       1 <0>         0.0674
     15 C5          2.8124   -0.1345   -1.3406 C.2       1 <0>         0.0394
     16 C6          1.8521    0.5199   -0.5621 C.2       1 <0>        -0.0221
     17 C7          1.2009   -1.8186   -2.0443 C.2       1 <0>        -0.0353
     18 C8          2.4949   -1.2830   -2.0694 C.2       1 <0>        -0.0475
     19 C9         -1.8116   -2.6056   -1.6502 C.3       1 <0>         0.0136
     20 C10         4.1678    0.3930   -1.3919 C.2       1 <0>         0.2520
     21 C11         4.6812   -0.4586    0.9148 C.3       1 <0>         0.0315
     22 C12        -5.1938    0.4551   -0.2887 C.ar      1 <0>         0.0275
     23 C13         5.5733   -1.6883    0.8066 C.3       1 <0>         0.0610
     24 C14         5.9083    1.5353   -0.0378 C.ar      1 <0>         0.1277
     25 C15        -5.7118   -0.0725    0.8942 C.ar      1 <0>        -0.0400
     26 C16        -6.0133    1.1977   -1.1388 C.ar      1 <0>        -0.0400
     27 C17         6.6066    1.5872    1.1580 C.ar      1 <0>        -0.0213
     28 C18        -7.0491    0.1426    1.2268 C.ar      1 <0>        -0.0452
     29 C19        -7.3507    1.4127   -0.8063 C.ar      1 <0>        -0.0452
     30 C20        -7.8686    0.8852    0.3767 C.ar      1 <0>         0.0648
     31 C21         5.3385   -2.6878    1.9184 C.2       1 <0>         0.3062
     32 C22         7.5640    2.5840    1.3095 C.ar      1 <0>        -0.0571
     33 C23         7.0396    3.3486   -0.8807 C.ar      1 <0>         0.0297
     34 C24         7.7907    3.4855    0.2756 C.ar      1 <0>        -0.0435
     35 C25        -9.2631    1.1093    0.7231 C.2       1 <0>         0.3081
     36 H1         -2.9285   -0.0724    1.2176 H         1 <0>         0.0541
     37 H2         -3.3336   -1.5452    0.3471 H         1 <0>         0.0541
     38 H3          2.0844    1.4147    0.0052 H         1 <0>         0.0647
     39 H4          0.9754   -2.7146   -2.6136 H         1 <0>         0.0639
     40 H5          3.2549   -1.7823   -2.6667 H         1 <0>         0.0626
     41 H6         -1.3199   -2.9262   -2.5708 H         1 <0>         0.0456
     42 H7         -2.8326   -2.3008   -1.8933 H         1 <0>         0.0456
     43 H8         -1.8181   -3.4197   -0.9211 H         1 <0>         0.0456
     44 H9          4.7270    0.0295    1.8929 H         1 <0>         0.0474
     45 H10         3.6501   -0.8226    0.8745 H         1 <0>         0.0474
     46 H11        -3.5268    0.6247   -1.4911 H         1 <0>         0.1465
     47 H12         5.3876   -2.1948   -0.1478 H         1 <0>         0.0393
     48 H13         6.6284   -1.3954    0.8380 H         1 <0>         0.0393
     49 H14        -5.1137   -0.6583    1.5856 H         1 <0>         0.0636
     50 H15        -5.6224    1.6143   -2.0638 H         1 <0>         0.0636
     51 H16         6.4923    0.8992    1.9842 H         1 <0>         0.0652
     52 H17        -7.4012   -0.2899    2.1568 H         1 <0>         0.0627
     53 H18        -7.9611    1.9954   -1.4907 H         1 <0>         0.0627
     54 H19         8.1375    2.6553    2.2290 H         1 <0>         0.0619
     55 H20         7.1786    4.0261   -1.7169 H         1 <0>         0.0830
     56 H21         8.5330    4.2697    0.3711 H         1 <0>         0.0633
     57 H22         5.9614   -4.4497    2.4748 H         1 <0>         0.2951
     58 H23       -10.7859    0.7608    2.1211 H         1 <0>         0.2884
     59 H24        -9.2884    0.0488    2.5715 H         1 <0>         0.2884
     60 H25       -10.9765    1.8552    0.3263 H         1 <0>         0.3633
@<TRIPOS>BOND
     1    1   20 2
     2    2   31 1
     3    2   57 1
     4    3   31 2
     5    4   11 1
     6    4   12 2
     7    4   19 1
     8    5   12 1
     9    5   13 2
    10    6   20 am
    11    6   21 1
    12    6   24 1
    13    7   14 1
    14    7   22 1
    15    7   46 1
    16    8   24 ar
    17    8   33 ar
    18    9   35 1
    19    9   58 1
    20    9   59 1
    21   10   35 2
    22   10   60 1
    23   11   13 1
    24   11   17 2
    25   12   14 1
    26   13   16 2
    27   14   36 1
    28   14   37 1
    29   15   16 1
    30   15   18 2
    31   15   20 1
    32   16   38 1
    33   17   18 1
    34   17   39 1
    35   18   40 1
    36   19   41 1
    37   19   42 1
    38   19   43 1
    39   21   23 1
    40   21   44 1
    41   21   45 1
    42   22   25 ar
    43   22   26 ar
    44   23   31 1
    45   23   47 1
    46   23   48 1
    47   24   27 ar
    48   25   28 ar
    49   25   49 1
    50   26   29 ar
    51   26   50 1
    52   27   32 ar
    53   27   51 1
    54   28   30 ar
    55   28   52 1
    56   29   30 ar
    57   29   53 1
    58   30   35 1
    59   32   34 ar
    60   32   54 1
    61   33   34 ar
    62   33   55 1
    63   34   56 1
