@<TRIPOS>MOLECULE
DB14200
   33    35     0     0     0
SMALL
USER_CHARGES

@<TRIPOS>ATOM
      1 S1         -0.2207    1.8367   -0.5781 S.3       1 <0>        -0.0163
      2 S2         -3.2117    2.3335   -0.5274 S.3       1 <0>        -0.0598
      3 N1          0.5547    0.3978   -0.3252 N.3       1 <0>        -0.2545
      4 N2         -2.1360    0.0262   -0.1136 N.2       1 <0>        -0.2315
      5 C1          2.0210    0.3088   -0.5366 C.3       1 <0>         0.0183
      6 C2          2.7324    1.1399    0.5318 C.3       1 <0>        -0.0367
      7 C3          2.4471   -1.1586   -0.4791 C.3       1 <0>        -0.0367
      8 C4          4.2489    0.9937    0.4347 C.3       1 <0>        -0.0516
      9 C5          3.9638   -1.3037   -0.5755 C.3       1 <0>        -0.0516
     10 C6          4.6774   -0.4703    0.4856 C.3       1 <0>        -0.0530
     11 C7         -1.8867    1.2772   -0.3802 C.2       1 <0>         0.1504
     12 C8         -4.2695    1.0104   -0.2055 C.ar      1 <0>         0.0401
     13 C9         -3.5086   -0.1461   -0.0092 C.ar      1 <0>         0.0795
     14 C10        -5.6718    0.9968   -0.1320 C.ar      1 <0>        -0.0459
     15 C11        -4.1771   -1.3576    0.2704 C.ar      1 <0>        -0.0352
     16 C12        -6.3084   -0.2152    0.1461 C.ar      1 <0>        -0.0606
     17 C13        -5.5728   -1.3784    0.3450 C.ar      1 <0>        -0.0597
     18 H1          2.2678    0.6995   -1.5331 H         1 <0>         0.0469
     19 H2          2.4120    0.8268    1.5347 H         1 <0>         0.0281
     20 H3          2.4861    2.2040    0.4379 H         1 <0>         0.0281
     21 H4          1.9759   -1.7217   -1.2942 H         1 <0>         0.0281
     22 H5          2.1073   -1.6169    0.4594 H         1 <0>         0.0281
     23 H6          4.7263    1.5456    1.2524 H         1 <0>         0.0266
     24 H7          4.5996    1.4438   -0.5023 H         1 <0>         0.0266
     25 H8          4.2975   -0.9886   -1.5719 H         1 <0>         0.0266
     26 H9          4.2414   -2.3579   -0.4645 H         1 <0>         0.0266
     27 H10         5.7616   -0.5425    0.3437 H         1 <0>         0.0265
     28 H11         4.4571   -0.8800    1.4792 H         1 <0>         0.0265
     29 H12         0.3291    0.0274    0.5983 H         1 <0>         0.1357
     30 H13        -6.2526    1.9010   -0.2862 H         1 <0>         0.0629
     31 H14        -3.6123   -2.2721    0.4275 H         1 <0>         0.0639
     32 H15        -7.3932   -0.2478    0.2074 H         1 <0>         0.0618
     33 H16        -6.0854   -2.3120    0.5604 H         1 <0>         0.0618
@<TRIPOS>BOND
     1    1    3 1
     2    1   11 1
     3    2   11 1
     4    2   12 1
     5    3    5 1
     6    3   29 1
     7    4   11 2
     8    4   13 1
     9    5    6 1
    10    5    7 1
    11    5   18 1
    12    6    8 1
    13    6   19 1
    14    6   20 1
    15    7    9 1
    16    7   21 1
    17    7   22 1
    18    8   10 1
    19    8   23 1
    20    8   24 1
    21    9   10 1
    22    9   25 1
    23    9   26 1
    24   10   27 1
    25   10   28 1
    26   12   13 ar
    27   12   14 ar
    28   13   15 ar
    29   14   16 ar
    30   14   30 1
    31   15   17 ar
    32   15   31 1
    33   16   17 ar
    34   16   32 1
    35   17   33 1
