@<TRIPOS>MOLECULE
DB14895
   61    65     0     0     0
SMALL
USER_CHARGES

@<TRIPOS>ATOM
      1 O1         -6.7200   -1.7118    0.4155 O.3       1 <0>        -0.3856
      2 O2          4.5365    0.4018    0.9511 O.2       1 <0>        -0.2732
      3 O3          5.5612    2.3292   -2.1269 O.2       1 <0>        -0.2676
      4 N1         -3.8469   -1.8303    0.3051 N.3       1 <0>        -0.3075
      5 N2          6.6531    1.1089   -0.4719 N.am      1 <0>        -0.2846
      6 N3          3.9280   -1.1527   -0.7071 N.am      1 <0>        -0.2838
      7 N4          8.2197    2.1434    0.9986 N.2       1 <0>        -0.2418
      8 C1         -4.6187   -0.6493   -0.1107 C.3       1 <0>         0.0380
      9 C2         -2.4612   -1.5149   -0.0689 C.3       1 <0>         0.0120
     10 C3         -3.6937    0.5440    0.1298 C.3       1 <0>        -0.0334
     11 C4         -2.3097   -0.0572    0.3412 C.3       1 <0>        -0.0357
     12 C5         -5.9354   -0.5412    0.6438 C.3       1 <0>         0.0954
     13 C6         -1.4620   -2.4325    0.6176 C.3       1 <0>        -0.0122
     14 C7         -0.0513   -2.0966    0.2702 C.ar      1 <0>        -0.0458
     15 C8         -6.7330    0.6752    0.2310 C.ar      1 <0>        -0.0177
     16 C9          6.1175   -0.2138   -0.7088 C.3       1 <0>         0.1155
     17 C10         7.1217   -1.1335   -0.0272 C.3       1 <0>        -0.0166
     18 C11         7.7166   -0.2858    1.1003 C.3       1 <0>         0.0080
     19 C12         7.5826    1.1066    0.5642 C.2       1 <0>         0.1130
     20 C13         0.5581   -2.6985   -0.8309 C.ar      1 <0>        -0.0568
     21 C14         0.6594   -1.1816    1.0468 C.ar      1 <0>        -0.0568
     22 C15        -6.5555    1.8863    0.8998 C.ar      1 <0>        -0.0561
     23 C16        -7.6469    0.5860   -0.8191 C.ar      1 <0>        -0.0561
     24 C17         4.7744   -0.2719   -0.0461 C.2       1 <0>         0.2403
     25 C18         2.5887   -1.4705   -0.3783 C.ar      1 <0>         0.0335
     26 C19         1.8780   -2.3856   -1.1551 C.ar      1 <0>        -0.0402
     27 C20         1.9795   -0.8685    0.7226 C.ar      1 <0>        -0.0402
     28 C21         6.3411    2.2497   -1.1843 C.2       1 <0>         0.2547
     29 C22        -7.2917    3.0080    0.5188 C.ar      1 <0>        -0.0614
     30 C23        -8.3828    1.7078   -1.2005 C.ar      1 <0>        -0.0614
     31 C24        -8.2053    2.9188   -0.5313 C.ar      1 <0>        -0.0617
     32 C25         7.0682    3.4480   -0.6884 C.2       1 <0>         0.0211
     33 C26         7.9244    3.3118    0.3352 C.2       1 <0>         0.0347
     34 H1         -4.8130   -0.7416   -1.1888 H         1 <0>         0.0489
     35 H2         -2.3588   -1.5972   -1.1601 H         1 <0>         0.0464
     36 H3         -3.9422    1.1282    1.0192 H         1 <0>         0.0282
     37 H4         -3.6968    1.2174   -0.7346 H         1 <0>         0.0282
     38 H5         -1.5546    0.4694   -0.2515 H         1 <0>         0.0281
     39 H6         -2.0430    0.0402    1.4007 H         1 <0>         0.0281
     40 H7         -4.1705   -2.6650   -0.1810 H         1 <0>         0.1226
     41 H8         -5.7610   -0.4966    1.7270 H         1 <0>         0.0659
     42 H9         -1.6667   -3.4763    0.3432 H         1 <0>         0.0328
     43 H10        -1.5888   -2.3960    1.7087 H         1 <0>         0.0328
     44 H11         6.0367   -0.3930   -1.7861 H         1 <0>         0.0625
     45 H12         7.9189   -1.3930   -0.7354 H         1 <0>         0.0294
     46 H13         6.6868   -2.0659    0.3459 H         1 <0>         0.0294
     47 H14         8.7596   -0.5367    1.3075 H         1 <0>         0.0344
     48 H15         7.1326   -0.3694    2.0223 H         1 <0>         0.0344
     49 H16        -6.2030   -2.4745    0.7261 H         1 <0>         0.2103
     50 H17         0.0144   -3.4115   -1.4451 H         1 <0>         0.0621
     51 H18         0.2027   -0.7118    1.9136 H         1 <0>         0.0621
     52 H19        -5.8682    1.9713    1.7365 H         1 <0>         0.0621
     53 H20        -7.7947   -0.3418   -1.3649 H         1 <0>         0.0621
     54 H21         2.3409   -2.8614   -2.0159 H         1 <0>         0.0636
     55 H22         2.4656   -0.1532    1.3709 H         1 <0>         0.0636
     56 H23         4.2952   -1.6411   -1.5211 H         1 <0>         0.1549
     57 H24        -7.1577    3.9496    1.0433 H         1 <0>         0.0618
     58 H25        -9.0923    1.6394   -2.0199 H         1 <0>         0.0618
     59 H26         6.8875    4.4026   -1.1666 H         1 <0>         0.0687
     60 H27        -8.7790    3.7920   -0.8276 H         1 <0>         0.0618
     61 H28         8.4548    4.1869    0.6976 H         1 <0>         0.0832
@<TRIPOS>BOND
     1    1   12 1
     2    1   49 1
     3    2   24 2
     4    3   28 2
     5    4    8 1
     6    4    9 1
     7    4   40 1
     8    5   16 1
     9    5   19 1
    10    5   28 am
    11    6   24 am
    12    6   25 1
    13    6   56 1
    14    7   19 2
    15    7   33 1
    16    8   10 1
    17    8   12 1
    18    8   34 1
    19    9   11 1
    20    9   13 1
    21    9   35 1
    22   10   11 1
    23   10   36 1
    24   10   37 1
    25   11   38 1
    26   11   39 1
    27   12   15 1
    28   12   41 1
    29   13   14 1
    30   13   42 1
    31   13   43 1
    32   14   20 ar
    33   14   21 ar
    34   15   22 ar
    35   15   23 ar
    36   16   17 1
    37   16   24 1
    38   16   44 1
    39   17   18 1
    40   17   45 1
    41   17   46 1
    42   18   19 1
    43   18   47 1
    44   18   48 1
    45   20   26 ar
    46   20   50 1
    47   21   27 ar
    48   21   51 1
    49   22   29 ar
    50   22   52 1
    51   23   30 ar
    52   23   53 1
    53   25   26 ar
    54   25   27 ar
    55   26   54 1
    56   27   55 1
    57   28   32 1
    58   29   31 ar
    59   29   57 1
    60   30   31 ar
    61   30   58 1
    62   31   60 1
    63   32   33 2
    64   32   59 1
    65   33   61 1
