@<TRIPOS>MOLECULE
DB14174
   38    39     0     0     0
SMALL
USER_CHARGES

@<TRIPOS>ATOM
      1 S1         -1.1201   -2.5039   -0.6871 S.3       1 <0>        -0.0271
      2 S2          0.1289   -1.1842   -1.6599 S.3       1 <0>        -0.0271
      3 S3         -0.5482   -1.7056    2.1679 S.2       1 <0>        -0.0271
      4 S4          2.3498   -3.1996   -1.3124 S.2       1 <0>        -0.0271
      5 N1         -2.5707   -0.8305    0.6812 N.pl3     1 <0>        -0.3184
      6 N2          2.3564   -0.7024   -0.4013 N.pl3     1 <0>        -0.3184
      7 C1         -4.3318    1.2146   -0.3111 C.3       1 <0>        -0.0502
      8 C2          4.4165    1.1954    0.2496 C.3       1 <0>        -0.0502
      9 C3         -3.0807    1.5672    0.4943 C.3       1 <0>        -0.0372
     10 C4         -4.1464   -0.1050   -1.0611 C.3       1 <0>        -0.0372
     11 C5          3.4629    1.4304   -0.9224 C.3       1 <0>        -0.0372
     12 C6          4.6031   -0.2995    0.5123 C.3       1 <0>        -0.0372
     13 C7         -2.6779    0.4227    1.4192 C.3       1 <0>         0.0131
     14 C8         -3.7273   -1.2256   -0.1140 C.3       1 <0>         0.0131
     15 C9          2.1369    0.7054   -0.7110 C.3       1 <0>         0.0131
     16 C10         3.2606   -0.9989    0.7037 C.3       1 <0>         0.0131
     17 C11        -1.4760   -1.6243    0.7853 C.2       1 <0>         0.1200
     18 C12         1.6974   -1.6860   -1.0628 C.2       1 <0>         0.1200
     19 H1         -5.1923    1.1351    0.3645 H         1 <0>         0.0266
     20 H2         -4.5536    2.0176   -1.0226 H         1 <0>         0.0266
     21 H3          5.3864    1.6587    0.0376 H         1 <0>         0.0266
     22 H4          4.0173    1.6789    1.1495 H         1 <0>         0.0266
     23 H5         -2.2577    1.7811   -0.1995 H         1 <0>         0.0280
     24 H6         -3.2570    2.4767    1.0789 H         1 <0>         0.0280
     25 H7         -5.0784   -0.3757   -1.5693 H         1 <0>         0.0280
     26 H8         -3.3801    0.0254   -1.8352 H         1 <0>         0.0280
     27 H9          3.2864    2.5042   -1.0498 H         1 <0>         0.0280
     28 H10         3.9341    1.0668   -1.8443 H         1 <0>         0.0280
     29 H11         5.1317   -0.7505   -0.3367 H         1 <0>         0.0280
     30 H12         5.2294   -0.4452    1.3993 H         1 <0>         0.0280
     31 H13        -1.7417    0.7046    1.9083 H         1 <0>         0.0464
     32 H14        -3.4346    0.2807    2.2003 H         1 <0>         0.0464
     33 H15        -4.5389   -1.4031    0.6046 H         1 <0>         0.0464
     34 H16        -3.6194   -2.1672   -0.6553 H         1 <0>         0.0464
     35 H17         1.5908    1.1477    0.1310 H         1 <0>         0.0464
     36 H18         1.5528    0.8728   -1.6185 H         1 <0>         0.0464
     37 H19         3.4120   -2.0666    0.8762 H         1 <0>         0.0464
     38 H20         2.7792   -0.6120    1.6109 H         1 <0>         0.0464
@<TRIPOS>BOND
     1    1    2 1
     2    1   17 1
     3    2   18 1
     4    3   17 2
     5    4   18 2
     6    5   13 1
     7    5   14 1
     8    5   17 1
     9    6   15 1
    10    6   16 1
    11    6   18 1
    12    7    9 1
    13    7   10 1
    14    7   19 1
    15    7   20 1
    16    8   11 1
    17    8   12 1
    18    8   21 1
    19    8   22 1
    20    9   13 1
    21    9   23 1
    22    9   24 1
    23   10   14 1
    24   10   25 1
    25   10   26 1
    26   11   15 1
    27   11   27 1
    28   11   28 1
    29   12   16 1
    30   12   29 1
    31   12   30 1
    32   13   31 1
    33   13   32 1
    34   14   33 1
    35   14   34 1
    36   15   35 1
    37   15   36 1
    38   16   37 1
    39   16   38 1
