@<TRIPOS>MOLECULE
DB14110
   16    15     0     0     0
SMALL
USER_CHARGES

@<TRIPOS>ATOM
      1 O1         -0.9059    1.5532    0.5249 O.3       1 <0>        -0.3920
      2 O2          2.8051   -0.5006    0.3436 O.3       1 <0>        -0.3949
      3 C1         -0.8231    0.3435   -0.2237 C.3       1 <0>         0.0545
      4 C2          0.4139   -0.4510    0.1988 C.3       1 <0>        -0.0038
      5 C3          1.7094    0.3101   -0.0595 C.3       1 <0>         0.0465
      6 C4         -2.1014   -0.4544   -0.0064 C.3       1 <0>        -0.0389
      7 H1         -0.7543    0.6104   -1.2848 H         1 <0>         0.0591
      8 H2          0.3617   -0.6885    1.2694 H         1 <0>         0.0312
      9 H3          0.4437   -1.4128   -0.3279 H         1 <0>         0.0312
     10 H4          1.8268    0.5559   -1.1196 H         1 <0>         0.0558
     11 H5          1.7556    1.2362    0.5201 H         1 <0>         0.0558
     12 H6         -2.9747    0.1364   -0.3034 H         1 <0>         0.0254
     13 H7         -2.2341   -0.7002    1.0531 H         1 <0>         0.0254
     14 H8         -2.0949   -1.3833   -0.5848 H         1 <0>         0.0254
     15 H9         -0.2152    2.1535    0.1973 H         1 <0>         0.2098
     16 H10         2.7873   -1.3084   -0.1972 H         1 <0>         0.2094
@<TRIPOS>BOND
     1    1    3 1
     2    1   15 1
     3    2    5 1
     4    2   16 1
     5    3    4 1
     6    3    6 1
     7    3    7 1
     8    4    5 1
     9    4    8 1
    10    4    9 1
    11    5   10 1
    12    5   11 1
    13    6   12 1
    14    6   13 1
    15    6   14 1
