@<TRIPOS>MOLECULE
DB14002
   86    87     0     0     0
SMALL
USER_CHARGES

@<TRIPOS>ATOM
      1 O1         -0.3696    1.8115   -0.2265 O.3       1 <0>        -0.4854
      2 O2         -5.4385   -0.0344   -1.4134 O.3       1 <0>        -0.4255
      3 O3         -5.0408   -1.8999   -0.0565 O.2       1 <0>        -0.2507
      4 C1         -0.1843    2.8523    0.7517 C.3       1 <0>         0.1082
      5 C2          1.2722    2.7307    1.2228 C.3       1 <0>        -0.0132
      6 C3         -1.1137    2.6687    1.9623 C.3       1 <0>        -0.0091
      7 C4          2.2196    2.4495    0.0550 C.3       1 <0>        -0.0492
      8 C5          4.6808    2.0047   -0.5823 C.3       1 <0>        -0.0439
      9 C6          3.6732    2.3632    0.5329 C.3       1 <0>        -0.0503
     10 C7         -2.5755    2.6293    1.5398 C.3       1 <0>        -0.0202
     11 C8          4.3807    0.6232   -1.2023 C.3       1 <0>        -0.0505
     12 C9         -0.3633    4.2160    0.0676 C.3       1 <0>        -0.0249
     13 C10        -2.7452    1.7346    0.3480 C.ar      1 <0>         0.0011
     14 C11        -1.6527    1.3906   -0.4569 C.ar      1 <0>         0.1281
     15 C12         4.4015   -0.5268   -0.1891 C.3       1 <0>        -0.0526
     16 C13         4.1225   -1.9004   -0.8155 C.3       1 <0>        -0.0505
     17 C14         4.0611   -3.1019    0.1563 C.3       1 <0>        -0.0439
     18 C15         4.6707    3.1182   -1.6362 C.3       1 <0>        -0.0624
     19 C16         3.0507   -2.8613    1.2977 C.3       1 <0>        -0.0505
     20 C17        -4.0194    1.2577    0.0112 C.ar      1 <0>        -0.0012
     21 C18        -1.8301    0.5525   -1.5614 C.ar      1 <0>        -0.0021
     22 C19         1.5964   -2.6302    0.8660 C.3       1 <0>        -0.0526
     23 C20        -3.0998    0.0737   -1.8811 C.ar      1 <0>        -0.0014
     24 C21        -4.1949    0.4291   -1.0972 C.ar      1 <0>         0.1381
     25 C22         3.7189   -4.3648   -0.6448 C.3       1 <0>        -0.0624
     26 C23         0.6076   -2.3359    2.0008 C.3       1 <0>        -0.0507
     27 C24        -5.2143    1.6221    0.8372 C.3       1 <0>        -0.0358
     28 C25        -0.6544    0.1600   -2.4014 C.3       1 <0>        -0.0359
     29 C26        -0.8364   -2.0235    1.5645 C.3       1 <0>        -0.0467
     30 C27        -3.2924   -0.8244   -3.0616 C.3       1 <0>        -0.0359
     31 C28        -1.7433   -1.6846    2.7477 C.3       1 <0>        -0.0627
     32 C29        -1.4135   -3.2151    0.7962 C.3       1 <0>        -0.0627
     33 C30        -5.7630   -1.2575   -0.8072 C.2       1 <0>         0.3092
     34 C31        -7.1431   -1.6799   -1.2157 C.3       1 <0>         0.0336
     35 H1          1.3623    1.8872    1.9208 H         1 <0>         0.0304
     36 H2          1.5813    3.6277    1.7735 H         1 <0>         0.0304
     37 H3         -0.8806    1.7141    2.4547 H         1 <0>         0.0307
     38 H4         -0.9590    3.4599    2.7053 H         1 <0>         0.0307
     39 H5          2.1298    3.2345   -0.6995 H         1 <0>         0.0267
     40 H6          1.9462    1.5010   -0.4146 H         1 <0>         0.0267
     41 H7          5.6813    1.9742   -0.1318 H         1 <0>         0.0298
     42 H8          3.9582    3.3334    0.9620 H         1 <0>         0.0268
     43 H9          3.7559    1.6495    1.3602 H         1 <0>         0.0268
     44 H10        -3.1597    2.2662    2.3930 H         1 <0>         0.0316
     45 H11        -2.9279    3.6372    1.2930 H         1 <0>         0.0316
     46 H12         5.1417    0.4206   -1.9676 H         1 <0>         0.0268
     47 H13         3.4232    0.6334   -1.7353 H         1 <0>         0.0268
     48 H14        -0.1447    5.0405    0.7542 H         1 <0>         0.0268
     49 H15        -1.3849    4.3504   -0.3033 H         1 <0>         0.0268
     50 H16         0.2739    4.3191   -0.8160 H         1 <0>         0.0268
     51 H17         3.6391   -0.3343    0.5689 H         1 <0>         0.0265
     52 H18         5.3710   -0.5524    0.3221 H         1 <0>         0.0265
     53 H19         3.1890   -1.8411   -1.3897 H         1 <0>         0.0268
     54 H20         4.9089   -2.1002   -1.5558 H         1 <0>         0.0268
     55 H21         5.0523   -3.2370    0.6073 H         1 <0>         0.0298
     56 H22         5.4956    2.9698   -2.3419 H         1 <0>         0.0232
     57 H23         4.8029    4.1033   -1.1770 H         1 <0>         0.0232
     58 H24         3.7462    3.1261   -2.2216 H         1 <0>         0.0232
     59 H25         3.3843   -2.0215    1.9180 H         1 <0>         0.0268
     60 H26         3.0723   -3.7349    1.9628 H         1 <0>         0.0268
     61 H27         1.2564   -3.5189    0.3254 H         1 <0>         0.0265
     62 H28         1.5497   -1.7927    0.1612 H         1 <0>         0.0265
     63 H29         2.7847   -4.2582   -1.2051 H         1 <0>         0.0232
     64 H30         3.6245   -5.2308    0.0185 H         1 <0>         0.0232
     65 H31         4.5129   -4.5846   -1.3669 H         1 <0>         0.0232
     66 H32         0.9871   -1.4783    2.5716 H         1 <0>         0.0268
     67 H33         0.6037   -3.1866    2.6945 H         1 <0>         0.0268
     68 H34        -5.2524    0.9992    1.7368 H         1 <0>         0.0279
     69 H35        -6.1581    1.4977    0.2967 H         1 <0>         0.0279
     70 H36        -5.1886    2.6766    1.1314 H         1 <0>         0.0279
     71 H37        -0.6827   -0.9060   -2.6513 H         1 <0>         0.0279
     72 H38         0.3037    0.3083   -1.8942 H         1 <0>         0.0279
     73 H39        -0.6397    0.7470   -3.3254 H         1 <0>         0.0279
     74 H40        -0.8165   -1.1571    0.8945 H         1 <0>         0.0295
     75 H41        -2.7244   -0.4709   -3.9287 H         1 <0>         0.0279
     76 H42        -4.3341   -0.8656   -3.3957 H         1 <0>         0.0279
     77 H43        -2.9773   -1.8435   -2.8148 H         1 <0>         0.0279
     78 H44        -1.8194   -2.5266    3.4438 H         1 <0>         0.0232
     79 H45        -2.7525   -1.4315    2.4059 H         1 <0>         0.0232
     80 H46        -1.3516   -0.8235    3.2990 H         1 <0>         0.0232
     81 H47        -1.3455   -4.1398    1.3794 H         1 <0>         0.0232
     82 H48        -0.8979   -3.3674   -0.1568 H         1 <0>         0.0232
     83 H49        -2.4692   -3.0455    0.5585 H         1 <0>         0.0232
     84 H50        -7.8686   -0.9282   -0.8952 H         1 <0>         0.0342
     85 H51        -7.1814   -1.8158   -2.2992 H         1 <0>         0.0342
     86 H52        -7.3890   -2.6307   -0.7345 H         1 <0>         0.0342
@<TRIPOS>BOND
     1    1    4 1
     2    1   14 1
     3    2   24 1
     4    2   33 1
     5    3   33 2
     6    4    5 1
     7    4    6 1
     8    4   12 1
     9    5    7 1
    10    5   35 1
    11    5   36 1
    12    6   10 1
    13    6   37 1
    14    6   38 1
    15    7    9 1
    16    7   39 1
    17    7   40 1
    18    8    9 1
    19    8   11 1
    20    8   18 1
    21    8   41 1
    22    9   42 1
    23    9   43 1
    24   10   13 1
    25   10   44 1
    26   10   45 1
    27   11   15 1
    28   11   46 1
    29   11   47 1
    30   12   48 1
    31   12   49 1
    32   12   50 1
    33   13   14 ar
    34   13   20 ar
    35   14   21 ar
    36   15   16 1
    37   15   51 1
    38   15   52 1
    39   16   17 1
    40   16   53 1
    41   16   54 1
    42   17   19 1
    43   17   25 1
    44   17   55 1
    45   18   56 1
    46   18   57 1
    47   18   58 1
    48   19   22 1
    49   19   59 1
    50   19   60 1
    51   20   24 ar
    52   20   27 1
    53   21   23 ar
    54   21   28 1
    55   22   26 1
    56   22   61 1
    57   22   62 1
    58   23   24 ar
    59   23   30 1
    60   25   63 1
    61   25   64 1
    62   25   65 1
    63   26   29 1
    64   26   66 1
    65   26   67 1
    66   27   68 1
    67   27   69 1
    68   27   70 1
    69   28   71 1
    70   28   72 1
    71   28   73 1
    72   29   31 1
    73   29   32 1
    74   29   74 1
    75   30   75 1
    76   30   76 1
    77   30   77 1
    78   31   78 1
    79   31   79 1
    80   31   80 1
    81   32   81 1
    82   32   82 1
    83   32   83 1
    84   33   34 1
    85   34   84 1
    86   34   85 1
    87   34   86 1
