@<TRIPOS>MOLECULE
DB14541
   77    81     0     0     0
SMALL
USER_CHARGES

@<TRIPOS>ATOM
      1 O1          0.1650    1.6539   -1.9194 O.3       1 <0>        -0.3804
      2 O2          2.4997   -1.5248    1.4936 O.3       1 <0>        -0.3915
      3 O3         -1.5294    2.4481    0.9546 O.2       1 <0>        -0.2907
      4 O4         -3.2907    0.7302   -0.1248 O.3       1 <0>        -0.4568
      5 O5          8.7155   -2.6120   -1.6636 O.2       1 <0>        -0.2927
      6 O6         -3.9431   -0.8964   -1.6256 O.2       1 <0>        -0.2508
      7 C1          1.3035    1.0091    0.1622 C.3       1 <0>         0.0092
      8 C2          2.6067    1.6982   -0.2974 C.3       1 <0>        -0.0292
      9 C3          3.8781    1.0520    0.2731 C.3       1 <0>        -0.0314
     10 C4          3.9361   -0.4404   -0.1893 C.3       1 <0>        -0.0028
     11 C5          0.2661    1.9378   -0.5272 C.3       1 <0>         0.1326
     12 C6          1.3477   -0.4476   -0.3429 C.3       1 <0>        -0.0179
     13 C7          5.2677   -1.1726    0.2564 C.3       1 <0>        -0.0049
     14 C8          2.6121   -1.2092    0.1131 C.3       1 <0>         0.0597
     15 C9          2.3426    3.1758   -0.0205 C.3       1 <0>        -0.0463
     16 C10         0.8435    3.3593   -0.3371 C.3       1 <0>        -0.0161
     17 C11         5.1249    1.8094   -0.2101 C.3       1 <0>        -0.0459
     18 C12         1.0972    1.0518    1.7017 C.3       1 <0>        -0.0562
     19 C13         6.4734   -0.3064   -0.1326 C.2       1 <0>        -0.0600
     20 C14         6.4092    1.1478    0.2663 C.3       1 <0>        -0.0305
     21 C15         5.3353   -2.5410   -0.4826 C.3       1 <0>        -0.0366
     22 C16         5.3575   -1.4199    1.7792 C.3       1 <0>        -0.0555
     23 C17        -1.1297    1.7831    0.0000 C.2       1 <0>         0.2022
     24 C18         6.7181   -3.1726   -0.4674 C.3       1 <0>         0.0107
     25 C19         7.5662   -0.7735   -0.7594 C.2       1 <0>        -0.0194
     26 C20         7.7318   -2.2179   -1.0408 C.2       1 <0>         0.1561
     27 C21        -2.0049    0.7698   -0.7065 C.3       1 <0>         0.1530
     28 C22        -4.1821   -0.1560   -0.6817 C.2       1 <0>         0.3075
     29 C23        -5.5023   -0.0748    0.0505 C.3       1 <0>         0.0452
     30 C24        -7.8547   -0.9544    0.2215 C.3       1 <0>        -0.0405
     31 C25        -6.5435   -1.0211   -0.5418 C.3       1 <0>        -0.0401
     32 C26        -8.9427   -1.8430   -0.3733 C.3       1 <0>        -0.0502
     33 C27        -8.5041    0.4253    0.1822 C.3       1 <0>        -0.0502
     34 C28       -10.2329   -1.2992    0.2315 C.3       1 <0>        -0.0528
     35 C29        -9.9542    0.1645    0.5780 C.3       1 <0>        -0.0528
     36 H1          2.6811    1.6054   -1.3939 H         1 <0>         0.0310
     37 H2          3.8606    1.1013    1.3666 H         1 <0>         0.0307
     38 H3          3.9798   -0.3929   -1.2908 H         1 <0>         0.0337
     39 H4          1.3262   -0.4687   -1.4393 H         1 <0>         0.0297
     40 H5          0.4588   -0.9856    0.0049 H         1 <0>         0.0297
     41 H6          2.6277   -2.1649   -0.4226 H         1 <0>         0.0596
     42 H7          2.5481    3.4309    1.0253 H         1 <0>         0.0269
     43 H8          2.9595    3.8280   -0.6472 H         1 <0>         0.0269
     44 H9          0.3746    3.9150    0.4818 H         1 <0>         0.0297
     45 H10         0.7308    3.9635   -1.2447 H         1 <0>         0.0297
     46 H11         5.1049    2.8410    0.1603 H         1 <0>         0.0271
     47 H12         5.1289    1.8671   -1.3065 H         1 <0>         0.0271
     48 H13         0.9210    2.0656    2.0758 H         1 <0>         0.0236
     49 H14         0.2323    0.4448    1.9930 H         1 <0>         0.0236
     50 H15         1.9553    0.6738    2.2604 H         1 <0>         0.0236
     51 H16         6.4782    1.2226    1.3584 H         1 <0>         0.0310
     52 H17         7.2629    1.7089   -0.1334 H         1 <0>         0.0310
     53 H18         5.0377   -2.4057   -1.5321 H         1 <0>         0.0278
     54 H19         4.6212   -3.2509   -0.0480 H         1 <0>         0.0278
     55 H20         4.7204   -2.2508    2.0972 H         1 <0>         0.0238
     56 H21         6.3775   -1.6839    2.0846 H         1 <0>         0.0238
     57 H22         5.0712   -0.5376    2.3600 H         1 <0>         0.0238
     58 H23        -0.3163    2.3827   -2.3474 H         1 <0>         0.2108
     59 H24         7.0284   -3.4511    0.5446 H         1 <0>         0.0345
     60 H25         6.7063   -4.0790   -1.0828 H         1 <0>         0.0345
     61 H26         1.6889   -2.0476    1.6140 H         1 <0>         0.2098
     62 H27         8.3947   -0.1264   -1.0271 H         1 <0>         0.0652
     63 H28        -2.1200    1.0600   -1.7555 H         1 <0>         0.0779
     64 H29        -1.5433   -0.2176   -0.6295 H         1 <0>         0.0779
     65 H30        -5.3239   -0.3269    1.1016 H         1 <0>         0.0378
     66 H31        -5.8460    0.9628   -0.0170 H         1 <0>         0.0378
     67 H32        -7.6874   -1.2456    1.2675 H         1 <0>         0.0301
     68 H33        -6.7030   -0.7748   -1.5996 H         1 <0>         0.0273
     69 H34        -6.1624   -2.0500   -0.5203 H         1 <0>         0.0273
     70 H35        -8.9760   -1.7440   -1.4653 H         1 <0>         0.0268
     71 H36        -8.7931   -2.9010   -0.1367 H         1 <0>         0.0268
     72 H37        -8.0300    1.1380    0.8640 H         1 <0>         0.0268
     73 H38        -8.4679    0.8482   -0.8294 H         1 <0>         0.0268
     74 H39       -10.4897   -1.8528    1.1421 H         1 <0>         0.0265
     75 H40       -11.0731   -1.4015   -0.4626 H         1 <0>         0.0265
     76 H41       -10.6366    0.8431    0.0562 H         1 <0>         0.0265
     77 H42       -10.0921    0.3235    1.6537 H         1 <0>         0.0265
@<TRIPOS>BOND
     1    1   11 1
     2    1   58 1
     3    2   14 1
     4    2   61 1
     5    3   23 2
     6    4   27 1
     7    4   28 1
     8    5   26 2
     9    6   28 2
    10    7    8 1
    11    7   11 1
    12    7   12 1
    13    7   18 1
    14    8    9 1
    15    8   15 1
    16    8   36 1
    17    9   10 1
    18    9   17 1
    19    9   37 1
    20   10   13 1
    21   10   14 1
    22   10   38 1
    23   11   16 1
    24   11   23 1
    25   12   14 1
    26   12   39 1
    27   12   40 1
    28   13   19 1
    29   13   21 1
    30   13   22 1
    31   14   41 1
    32   15   16 1
    33   15   42 1
    34   15   43 1
    35   16   44 1
    36   16   45 1
    37   17   20 1
    38   17   46 1
    39   17   47 1
    40   18   48 1
    41   18   49 1
    42   18   50 1
    43   19   20 1
    44   19   25 2
    45   20   51 1
    46   20   52 1
    47   21   24 1
    48   21   53 1
    49   21   54 1
    50   22   55 1
    51   22   56 1
    52   22   57 1
    53   23   27 1
    54   24   26 1
    55   24   59 1
    56   24   60 1
    57   25   26 1
    58   25   62 1
    59   27   63 1
    60   27   64 1
    61   28   29 1
    62   29   31 1
    63   29   65 1
    64   29   66 1
    65   30   31 1
    66   30   32 1
    67   30   33 1
    68   30   67 1
    69   31   68 1
    70   31   69 1
    71   32   34 1
    72   32   70 1
    73   32   71 1
    74   33   35 1
    75   33   72 1
    76   33   73 1
    77   34   35 1
    78   34   74 1
    79   34   75 1
    80   35   76 1
    81   35   77 1
