@<TRIPOS>MOLECULE
DB14033
   36    37     0     0     0
SMALL
USER_CHARGES

@<TRIPOS>ATOM
      1 S1          0.4831   -0.7894   -1.6487 S.o2      1 <0>         0.0835
      2 O1         -0.9543    0.9867    1.0981 O.3       1 <0>        -0.3371
      3 O2         -0.0599    0.2929   -2.4601 O.2       1 <0>        -0.1493
      4 O3          0.7452   -2.0859   -2.2620 O.2       1 <0>        -0.1493
      5 O4          0.1199   -3.2643    0.1780 O.2       1 <0>        -0.2739
      6 N1         -0.5116   -1.0482   -0.2577 N.am      1 <0>        -0.1038
      7 N2         -1.9932    1.8860    1.3052 N.2       1 <0>        -0.0810
      8 N3          5.5187    1.2554    0.7632 N.pl3     1 <0>        -0.3580
      9 C1         -1.3625    0.0726    0.2056 C.2       1 <0>         0.2493
     10 C2          1.9620   -0.1892   -0.9410 C.ar      1 <0>         0.1094
     11 C3         -2.6298    0.3052   -0.2057 C.2       1 <0>         0.0356
     12 C4         -2.9829    1.4586    0.5160 C.2       1 <0>         0.0854
     13 C5         -0.5650   -2.2891    0.4810 C.2       1 <0>         0.2385
     14 C6          2.9695   -1.0799   -0.5707 C.ar      1 <0>        -0.0333
     15 C7          2.1354    1.1809   -0.7446 C.ar      1 <0>        -0.0333
     16 C8         -3.4507   -0.4497   -1.1675 C.3       1 <0>        -0.0330
     17 C9          4.1506   -0.6004   -0.0041 C.ar      1 <0>        -0.0392
     18 C10         3.3166    1.6603   -0.1783 C.ar      1 <0>        -0.0392
     19 C11         4.3242    0.7696    0.1919 C.ar      1 <0>         0.0247
     20 C12        -4.2589    2.1929    0.4869 C.3       1 <0>        -0.0188
     21 C13        -1.4861   -2.3517    1.6733 C.3       1 <0>         0.0143
     22 H1          2.8534   -2.1510   -0.7093 H         1 <0>         0.0638
     23 H2          1.3619    1.8932   -1.0175 H         1 <0>         0.0638
     24 H3         -4.4936   -0.5011   -0.8379 H         1 <0>         0.0280
     25 H4         -3.4266    0.0341   -2.1493 H         1 <0>         0.0280
     26 H5         -3.0953   -1.4779   -1.2885 H         1 <0>         0.0280
     27 H6          4.9279   -1.3045    0.2814 H         1 <0>         0.0636
     28 H7          3.4391    2.7300   -0.0289 H         1 <0>         0.0636
     29 H8         -5.0529    1.5972    0.9487 H         1 <0>         0.0294
     30 H9         -4.1949    3.1439    1.0264 H         1 <0>         0.0294
     31 H10        -4.5536    2.4158   -0.5438 H         1 <0>         0.0294
     32 H11        -2.5260   -2.2373    1.3583 H         1 <0>         0.0323
     33 H12        -1.3847   -3.3292    2.1552 H         1 <0>         0.0323
     34 H13        -1.2179   -1.5853    2.4049 H         1 <0>         0.0323
     35 H14         6.2492    0.6103    1.0339 H         1 <0>         0.1423
     36 H15         5.6437    2.2485    0.9074 H         1 <0>         0.1423
@<TRIPOS>BOND
     1    1    3 2
     2    1    4 2
     3    1    6 1
     4    1   10 1
     5    2    7 1
     6    2    9 1
     7    5   13 2
     8    6    9 1
     9    6   13 am
    10    7   12 2
    11    8   19 1
    12    8   35 1
    13    8   36 1
    14    9   11 2
    15   10   14 ar
    16   10   15 ar
    17   11   12 1
    18   11   16 1
    19   12   20 1
    20   13   21 1
    21   14   17 ar
    22   14   22 1
    23   15   18 ar
    24   15   23 1
    25   16   24 1
    26   16   25 1
    27   16   26 1
    28   17   19 ar
    29   17   27 1
    30   18   19 ar
    31   18   28 1
    32   20   29 1
    33   20   30 1
    34   20   31 1
    35   21   32 1
    36   21   33 1
    37   21   34 1
