@<TRIPOS>MOLECULE
DB14763
   31    32     0     0     0
SMALL
USER_CHARGES

@<TRIPOS>ATOM
      1 Cl1         5.6212    0.0551    0.3282 Cl        1 <0>        -0.0835
      2 N1         -0.2903   -0.3478   -0.0993 N.pl3     1 <0>        -0.1537
      3 N2         -2.5442    0.7036    0.1021 N.2       1 <0>        -0.0704
      4 N3         -2.2770   -1.6412    0.0989 N.2       1 <0>        -0.0088
      5 N4         -0.2355   -2.7114   -0.1186 N.pl3     1 <0>        -0.2507
      6 N5         -4.3835   -0.6541    0.4086 N.pl3     1 <0>        -0.2468
      7 C1         -1.1001    0.8911   -0.1330 C.3       1 <0>         0.2351
      8 C2         -0.6516    1.8862    0.9546 C.3       1 <0>         0.0067
      9 C3         -1.0042    1.5613   -1.5147 C.3       1 <0>         0.0067
     10 C4          1.1125   -0.2522    0.0020 C.ar      1 <0>         0.0981
     11 C5         -0.9776   -1.5551   -0.0273 C.2       1 <0>         0.3829
     12 C6         -3.0349   -0.4932    0.1975 C.2       1 <0>         0.4197
     13 C7          1.9219   -0.3291   -1.1441 C.ar      1 <0>        -0.0235
     14 C8          1.7317   -0.0778    1.2512 C.ar      1 <0>        -0.0235
     15 C9          3.3101   -0.2347   -1.0436 C.ar      1 <0>        -0.0403
     16 C10         3.1197    0.0168    1.3515 C.ar      1 <0>        -0.0403
     17 C11         3.9089   -0.0617    0.2042 C.ar      1 <0>         0.0412
     18 H1          0.3640    2.2607    0.7905 H         1 <0>         0.0299
     19 H2         -0.7082    1.4366    1.9524 H         1 <0>         0.0299
     20 H3         -1.3089    2.7650    0.9697 H         1 <0>         0.0299
     21 H4          0.0196    1.8754   -1.7433 H         1 <0>         0.0299
     22 H5         -1.3248    0.8724   -2.3050 H         1 <0>         0.0299
     23 H6         -1.6444    2.4493   -1.5734 H         1 <0>         0.0299
     24 H7          1.4695   -0.4657   -2.1236 H         1 <0>         0.0651
     25 H8          1.1375   -0.0359    2.1608 H         1 <0>         0.0651
     26 H9          0.7715   -2.7134   -0.2315 H         1 <0>         0.2412
     27 H10        -0.6895   -3.6177   -0.0789 H         1 <0>         0.2412
     28 H11         3.9124   -0.2979   -1.9462 H         1 <0>         0.0633
     29 H12         3.5728    0.1467    2.3309 H         1 <0>         0.0633
     30 H13        -4.7970   -1.5768    0.4878 H         1 <0>         0.2415
     31 H14        -5.0017    0.1455    0.4913 H         1 <0>         0.2415
@<TRIPOS>BOND
     1    1   17 1
     2    2    7 1
     3    2   10 1
     4    2   11 1
     5    3    7 1
     6    3   12 2
     7    4   11 2
     8    4   12 1
     9    5   11 1
    10    5   26 1
    11    5   27 1
    12    6   12 1
    13    6   30 1
    14    6   31 1
    15    7    8 1
    16    7    9 1
    17    8   18 1
    18    8   19 1
    19    8   20 1
    20    9   21 1
    21    9   22 1
    22    9   23 1
    23   10   13 ar
    24   10   14 ar
    25   13   15 ar
    26   13   24 1
    27   14   16 ar
    28   14   25 1
    29   15   17 ar
    30   15   28 1
    31   16   17 ar
    32   16   29 1
