@<TRIPOS>MOLECULE
DB14191
   29    30     0     0     0
SMALL
USER_CHARGES

@<TRIPOS>ATOM
      1 N1          1.2769   -1.2477   -0.4467 N.pl3     1 <0>        -0.2433
      2 N2         -0.5844    0.1515    0.0905 N.2       1 <0>        -0.0729
      3 N3         -0.8155   -2.0863   -0.7315 N.pl3     1 <0>        -0.2885
      4 C1          2.3845   -0.4113   -0.1910 C.ar      1 <0>         0.1000
      5 C2          3.5992   -0.9666    0.2100 C.ar      1 <0>        -0.0232
      6 C3          2.2631    0.9699   -0.3392 C.ar      1 <0>        -0.0232
      7 C4         -1.9723    0.3063    0.1628 C.ar      1 <0>         0.1420
      8 C5         -0.0812   -0.9854   -0.3263 C.2       1 <0>         0.3892
      9 C6          4.6936   -0.1398    0.4633 C.ar      1 <0>        -0.0585
     10 C7          3.3576    1.7967   -0.0860 C.ar      1 <0>        -0.0585
     11 C8         -2.6508   -0.0272    1.3351 C.ar      1 <0>        -0.0196
     12 C9         -2.6784    0.7935   -0.9372 C.ar      1 <0>        -0.0196
     13 C10         4.5729    1.2418    0.3154 C.ar      1 <0>        -0.0615
     14 C11        -4.0354    0.1263    1.4074 C.ar      1 <0>        -0.0584
     15 C12        -4.0630    0.9470   -0.8648 C.ar      1 <0>        -0.0584
     16 C13        -4.7414    0.6134    0.3075 C.ar      1 <0>        -0.0615
     17 H1          1.5381   -2.2158   -0.6155 H         1 <0>         0.2648
     18 H2          3.7064   -2.0416    0.3300 H         1 <0>         0.0652
     19 H3          1.3486    1.4388   -0.6869 H         1 <0>         0.0652
     20 H4          5.6400   -0.5717    0.7755 H         1 <0>         0.0619
     21 H5          3.2670    2.8720   -0.2098 H         1 <0>         0.0619
     22 H6         -2.1094   -0.4073    2.1976 H         1 <0>         0.0653
     23 H7         -2.1586    1.0564   -1.8548 H         1 <0>         0.0653
     24 H8          5.4257    1.8854    0.5105 H         1 <0>         0.0618
     25 H9         -4.5638   -0.1335    2.3201 H         1 <0>         0.0619
     26 H10        -4.6128    1.3263   -1.7211 H         1 <0>         0.0619
     27 H11        -5.8194    0.7329    0.3638 H         1 <0>         0.0618
     28 H12        -0.3580   -2.9321   -1.0543 H         1 <0>         0.2547
     29 H13        -1.8292   -2.0918   -0.7246 H         1 <0>         0.2547
@<TRIPOS>BOND
     1    1    4 1
     2    1    8 1
     3    1   17 1
     4    2    7 1
     5    2    8 2
     6    3    8 1
     7    3   28 1
     8    3   29 1
     9    4    5 ar
    10    4    6 ar
    11    5    9 ar
    12    5   18 1
    13    6   10 ar
    14    6   19 1
    15    7   11 ar
    16    7   12 ar
    17    9   13 ar
    18    9   20 1
    19   10   13 ar
    20   10   21 1
    21   11   14 ar
    22   11   22 1
    23   12   15 ar
    24   12   23 1
    25   13   24 1
    26   14   16 ar
    27   14   25 1
    28   15   16 ar
    29   15   26 1
    30   16   27 1
