@<TRIPOS>MOLECULE
DB14674
   65    68     0     0     0
SMALL
USER_CHARGES

@<TRIPOS>ATOM
      1 Cl1        -8.5653   -2.4192   -1.9067 Cl        1 <0>        -0.1238
      2 Cl2        -8.6295    3.1213    2.4349 Cl        1 <0>        -0.1238
      3 P1          7.8067    0.9938    0.0065 P.3       1 <0>         0.4726
      4 O1          6.2655    1.0446    0.5041 O.3       1 <0>        -0.2829
      5 O2          7.6841    1.2598   -1.5839 O.3       1 <0>        -0.3026
      6 O3          8.4359    2.3741    0.5671 O.3       1 <0>        -0.3026
      7 O4          8.5531   -0.2520    0.3850 O.2       1 <0>        -0.2275
      8 O5         -4.5667   -0.1702   -0.8474 O.3       1 <0>        -0.4114
      9 O6         -4.5213    0.9598    1.1714 O.2       1 <0>        -0.2258
     10 N1         -6.5783    0.3894    0.2479 N.am      1 <0>        -0.2649
     11 C1          3.8862    0.4019    0.2051 C.3       1 <0>        -0.0022
     12 C2          3.2706   -0.9996    0.0209 C.3       1 <0>        -0.0298
     13 C3          1.7506   -0.9876    0.1805 C.3       1 <0>        -0.0305
     14 C4          1.1411   -0.0642   -0.9179 C.3       1 <0>        -0.0125
     15 C5          5.3764    0.0404    0.0550 C.3       1 <0>         0.0757
     16 C6          3.3304    1.3156   -0.8940 C.3       1 <0>        -0.0444
     17 C7          4.1121   -1.8811    0.9395 C.3       1 <0>        -0.0470
     18 C8          1.7899    1.3460   -0.8893 C.3       1 <0>        -0.0454
     19 C9          5.5234   -1.2717    0.8501 C.3       1 <0>        -0.0252
     20 C10         1.1355   -2.3826    0.0547 C.3       1 <0>        -0.0454
     21 C11         3.6178    1.0492    1.5880 C.3       1 <0>        -0.0569
     22 C12        -0.3844   -0.0757   -0.8664 C.ar      1 <0>        -0.0406
     23 C13        -0.3573   -2.3201    0.3647 C.3       1 <0>        -0.0270
     24 C14        -1.0743   -1.1676   -0.2951 C.ar      1 <0>        -0.0404
     25 C15        -1.1403    0.9499   -1.4615 C.ar      1 <0>        -0.0546
     26 C16        -2.4802   -1.1800   -0.2851 C.ar      1 <0>        -0.0157
     27 C17        -2.5365    0.9204   -1.4528 C.ar      1 <0>        -0.0189
     28 C18        -3.2069   -0.1417   -0.8603 C.ar      1 <0>         0.1335
     29 C19        -5.1801    0.4395    0.2717 C.2       1 <0>         0.4082
     30 C20        -7.3504   -0.2270   -0.8260 C.3       1 <0>         0.0313
     31 C21        -7.3501    0.9765    1.3340 C.3       1 <0>         0.0313
     32 C22        -7.6271   -1.6997   -0.5748 C.3       1 <0>         0.0385
     33 C23        -7.6915    2.4359    1.0849 C.3       1 <0>         0.0385
     34 H1          3.4803   -1.3438   -1.0059 H         1 <0>         0.0310
     35 H2          1.4888   -0.6010    1.1738 H         1 <0>         0.0310
     36 H3          1.3949   -0.5002   -1.8966 H         1 <0>         0.0352
     37 H4          5.5902   -0.1683   -1.0017 H         1 <0>         0.0607
     38 H5          3.6655    0.9630   -1.8783 H         1 <0>         0.0272
     39 H6          3.7198    2.3348   -0.7845 H         1 <0>         0.0272
     40 H7          3.7470   -1.8506    1.9721 H         1 <0>         0.0269
     41 H8          4.1105   -2.9275    0.6181 H         1 <0>         0.0269
     42 H9          1.4282    1.9035   -0.0170 H         1 <0>         0.0271
     43 H10         1.4795    1.9229   -1.7683 H         1 <0>         0.0271
     44 H11         5.9377   -1.1013    1.8502 H         1 <0>         0.0291
     45 H12         6.2079   -1.9528    0.3325 H         1 <0>         0.0291
     46 H13         1.2905   -2.7722   -0.9597 H         1 <0>         0.0271
     47 H14         1.6099   -3.0900    0.7439 H         1 <0>         0.0271
     48 H15         4.0159    0.4505    2.4132 H         1 <0>         0.0236
     49 H16         4.0949    2.0344    1.6486 H         1 <0>         0.0236
     50 H17         2.5539    1.2003    1.7883 H         1 <0>         0.0236
     51 H18        -0.8178   -3.2677    0.0599 H         1 <0>         0.0313
     52 H19        -0.4926   -2.2227    1.4497 H         1 <0>         0.0313
     53 H20        -0.6593    1.7908   -1.9518 H         1 <0>         0.0622
     54 H21        -3.0101   -2.0119    0.1749 H         1 <0>         0.0657
     55 H22        -3.0920    1.7315   -1.9159 H         1 <0>         0.0654
     56 H23         8.4880    1.1848   -2.1408 H         1 <0>         0.2220
     57 H24         9.3957    2.5396    0.4506 H         1 <0>         0.2220
     58 H25        -6.7939   -0.1159   -1.7637 H         1 <0>         0.0477
     59 H26        -8.2865    0.3303   -0.9509 H         1 <0>         0.0477
     60 H27        -6.7624    0.8972    2.2569 H         1 <0>         0.0477
     61 H28        -8.2578    0.3807    1.4862 H         1 <0>         0.0477
     62 H29        -6.6944   -2.2651   -0.4824 H         1 <0>         0.0445
     63 H30        -8.1985   -1.8437    0.3473 H         1 <0>         0.0445
     64 H31        -6.7849    3.0388    0.9711 H         1 <0>         0.0445
     65 H32        -8.2882    2.5534    0.1752 H         1 <0>         0.0445
@<TRIPOS>BOND
     1    1   32 1
     2    2   33 1
     3    3    4 1
     4    3    5 1
     5    3    6 1
     6    3    7 2
     7    4   15 1
     8    5   56 1
     9    6   57 1
    10    8   28 1
    11    8   29 1
    12    9   29 2
    13   10   29 am
    14   10   30 1
    15   10   31 1
    16   11   12 1
    17   11   15 1
    18   11   16 1
    19   11   21 1
    20   12   13 1
    21   12   17 1
    22   12   34 1
    23   13   14 1
    24   13   20 1
    25   13   35 1
    26   14   18 1
    27   14   22 1
    28   14   36 1
    29   15   19 1
    30   15   37 1
    31   16   18 1
    32   16   38 1
    33   16   39 1
    34   17   19 1
    35   17   40 1
    36   17   41 1
    37   18   42 1
    38   18   43 1
    39   19   44 1
    40   19   45 1
    41   20   23 1
    42   20   46 1
    43   20   47 1
    44   21   48 1
    45   21   49 1
    46   21   50 1
    47   22   24 ar
    48   22   25 ar
    49   23   24 1
    50   23   51 1
    51   23   52 1
    52   24   26 ar
    53   25   27 ar
    54   25   53 1
    55   26   28 ar
    56   26   54 1
    57   27   28 ar
    58   27   55 1
    59   30   32 1
    60   30   58 1
    61   30   59 1
    62   31   33 1
    63   31   60 1
    64   31   61 1
    65   32   62 1
    66   32   63 1
    67   33   64 1
    68   33   65 1
