@<TRIPOS>MOLECULE
DB14104
   52    51     0     0     0
SMALL
USER_CHARGES

@<TRIPOS>ATOM
      1 O1          7.3944    0.1839   -0.8527 O.3       1 <0>        -0.4806
      2 O2          6.2013   -0.7929    0.8204 O.2       1 <0>        -0.2510
      3 C1          1.4226    1.3574    0.3808 C.3       1 <0>        -0.0530
      4 C2          0.2620    2.2233   -0.1198 C.3       1 <0>        -0.0528
      5 C3          2.7252    1.5844   -0.3906 C.3       1 <0>        -0.0526
      6 C4         -1.0475    1.9774    0.6374 C.3       1 <0>        -0.0496
      7 C5          3.8475    0.6869    0.1426 C.3       1 <0>        -0.0430
      8 C6         -2.1939    2.8861    0.1788 C.3       1 <0>        -0.0348
      9 C7          5.1548    0.8660   -0.6293 C.3       1 <0>         0.0448
     10 C8         -2.1193   -2.1852    0.2415 C.3       1 <0>        -0.0496
     11 C9         -0.6900   -2.5336   -0.1850 C.3       1 <0>        -0.0530
     12 C10        -3.4813    2.6260    0.9068 C.2       1 <0>        -0.0876
     13 C11        -3.0189   -1.9549   -0.9789 C.3       1 <0>        -0.0348
     14 C12         0.2364   -2.8418    0.9933 C.3       1 <0>        -0.0559
     15 C13        -4.3931    1.7256    0.5102 C.2       1 <0>        -0.0842
     16 C14        -4.2390    0.8666   -0.7108 C.3       1 <0>        -0.0165
     17 C15        -4.4630   -1.6301   -0.7054 C.2       1 <0>        -0.0876
     18 C16         6.2734   -0.0044   -0.1103 C.2       1 <0>         0.3047
     19 C17        -5.0155   -0.4129   -0.5850 C.2       1 <0>        -0.0842
     20 C18         1.6377   -3.2568    0.5722 C.3       1 <0>        -0.0653
     21 H1          1.5907    1.5638    1.4451 H         1 <0>         0.0265
     22 H2          1.1379    0.3010    0.3046 H         1 <0>         0.0265
     23 H3          0.5389    3.2807   -0.0277 H         1 <0>         0.0265
     24 H4          0.1003    2.0287   -1.1871 H         1 <0>         0.0265
     25 H5          2.5615    1.3751   -1.4545 H         1 <0>         0.0265
     26 H6          3.0239    2.6362   -0.3084 H         1 <0>         0.0265
     27 H7         -0.8751    2.1313    1.7104 H         1 <0>         0.0268
     28 H8         -1.3310    0.9264    0.5161 H         1 <0>         0.0268
     29 H9          3.5359   -0.3634    0.0871 H         1 <0>         0.0270
     30 H10         4.0176    0.9049    1.2045 H         1 <0>         0.0270
     31 H11        -2.3325    2.7980   -0.9054 H         1 <0>         0.0307
     32 H12        -1.9154    3.9338    0.3493 H         1 <0>         0.0307
     33 H13         5.4797    1.9103   -0.5600 H         1 <0>         0.0377
     34 H14         4.9920    0.6157   -1.6838 H         1 <0>         0.0377
     35 H15        -2.1107   -1.2910    0.8745 H         1 <0>         0.0268
     36 H16        -2.5313   -3.0013    0.8477 H         1 <0>         0.0268
     37 H17        -0.7158   -3.4041   -0.8524 H         1 <0>         0.0265
     38 H18        -0.2708   -1.7023   -0.7653 H         1 <0>         0.0265
     39 H19        -3.6735    3.2074    1.8045 H         1 <0>         0.0569
     40 H20        -2.5701   -1.1921   -1.6253 H         1 <0>         0.0307
     41 H21        -3.0126   -2.8668   -1.5918 H         1 <0>         0.0307
     42 H22        -0.2002   -3.6444    1.5993 H         1 <0>         0.0263
     43 H23         0.3055   -1.9582    1.6389 H         1 <0>         0.0263
     44 H24        -5.3093    1.6412    1.0905 H         1 <0>         0.0572
     45 H25        -3.1876    0.6854   -0.9367 H         1 <0>         0.0350
     46 H26        -4.6569    1.4139   -1.5651 H         1 <0>         0.0350
     47 H27        -5.1198   -2.4897   -0.5844 H         1 <0>         0.0569
     48 H28        -6.0843   -0.3430   -0.3973 H         1 <0>         0.0572
     49 H29         1.6092   -4.1698   -0.0307 H         1 <0>         0.0230
     50 H30         2.2591   -3.4479    1.4525 H         1 <0>         0.0230
     51 H31         2.1156   -2.4701   -0.0196 H         1 <0>         0.0230
     52 H32         8.1355   -0.3808   -0.5458 H         1 <0>         0.2951
@<TRIPOS>BOND
     1    1   18 1
     2    1   52 1
     3    2   18 2
     4    3    4 1
     5    3    5 1
     6    3   21 1
     7    3   22 1
     8    4    6 1
     9    4   23 1
    10    4   24 1
    11    5    7 1
    12    5   25 1
    13    5   26 1
    14    6    8 1
    15    6   27 1
    16    6   28 1
    17    7    9 1
    18    7   29 1
    19    7   30 1
    20    8   12 1
    21    8   31 1
    22    8   32 1
    23    9   18 1
    24    9   33 1
    25    9   34 1
    26   10   11 1
    27   10   13 1
    28   10   35 1
    29   10   36 1
    30   11   14 1
    31   11   37 1
    32   11   38 1
    33   12   15 2
    34   12   39 1
    35   13   17 1
    36   13   40 1
    37   13   41 1
    38   14   20 1
    39   14   42 1
    40   14   43 1
    41   15   16 1
    42   15   44 1
    43   16   19 1
    44   16   45 1
    45   16   46 1
    46   17   19 2
    47   17   47 1
    48   19   48 1
    49   20   49 1
    50   20   50 1
    51   20   51 1
