@<TRIPOS>MOLECULE
DB14086
   35    37     0     0     0
SMALL
USER_CHARGES

@<TRIPOS>ATOM
      1 O1          0.3375   -0.8398    0.3100 O.3       1 <0>        -0.4811
      2 O2         -0.7096    2.6972    0.0269 O.3       1 <0>        -0.3875
      3 O3          4.3670    1.7938   -0.2231 O.3       1 <0>        -0.5063
      4 O4          4.5735   -2.9451    0.1500 O.3       1 <0>        -0.5065
      5 O5         -4.1061   -0.9759   -2.3431 O.3       1 <0>        -0.5033
      6 O6         -5.8815   -0.8714   -0.2078 O.3       1 <0>        -0.5033
      7 C1          0.0484    1.5348   -0.2918 C.3       1 <0>         0.1004
      8 C2         -0.4076    0.3580    0.5823 C.3       1 <0>         0.1513
      9 C3          1.5230    1.8218   -0.0223 C.3       1 <0>         0.0092
     10 C4          2.3201    0.5536    0.0236 C.ar      1 <0>         0.0384
     11 C5          1.6933   -0.6851    0.1968 C.ar      1 <0>         0.1317
     12 C6         -1.8732    0.0280    0.3674 C.ar      1 <0>        -0.0012
     13 C7          3.7169    0.6031   -0.0796 C.ar      1 <0>         0.1270
     14 C8          2.4500   -1.8597    0.2270 C.ar      1 <0>         0.0221
     15 C9         -2.3256   -0.3265   -0.9015 C.ar      1 <0>        -0.0098
     16 C10        -2.7608    0.0816    1.4397 C.ar      1 <0>        -0.0513
     17 C11         4.4717   -0.5691   -0.0371 C.ar      1 <0>         0.0218
     18 C12         3.8381   -1.8005    0.1122 C.ar      1 <0>         0.1238
     19 C13        -3.6728   -0.6292   -1.0991 C.ar      1 <0>         0.1586
     20 C14        -4.1079   -0.2211    1.2421 C.ar      1 <0>        -0.0162
     21 C15        -4.5640   -0.5765   -0.0272 C.ar      1 <0>         0.1582
     22 H1         -0.0839    1.3107   -1.3574 H         1 <0>         0.0637
     23 H2         -0.2605    0.6108    1.6421 H         1 <0>         0.0811
     24 H3          1.6375    2.3520    0.9321 H         1 <0>         0.0342
     25 H4          1.8978    2.4944   -0.8037 H         1 <0>         0.0342
     26 H5          1.9514   -2.8189    0.3466 H         1 <0>         0.0691
     27 H6         -1.6334   -0.3804   -1.7379 H         1 <0>         0.0659
     28 H7         -0.3819    3.4223   -0.5321 H         1 <0>         0.2100
     29 H8         -2.4206    0.3570    2.4342 H         1 <0>         0.0623
     30 H9          5.5552   -0.5310   -0.1208 H         1 <0>         0.0691
     31 H10        -4.7914   -0.1763    2.0859 H         1 <0>         0.0655
     32 H11         5.3242    1.6308   -0.2776 H         1 <0>         0.2921
     33 H12         3.9732   -3.7025    0.2589 H         1 <0>         0.2921
     34 H13        -3.3528   -0.9583   -2.9582 H         1 <0>         0.2923
     35 H14        -6.3453   -0.7826    0.6425 H         1 <0>         0.2923
@<TRIPOS>BOND
     1    1    8 1
     2    1   11 1
     3    2    7 1
     4    2   28 1
     5    3   13 1
     6    3   32 1
     7    4   18 1
     8    4   33 1
     9    5   19 1
    10    5   34 1
    11    6   21 1
    12    6   35 1
    13    7    8 1
    14    7    9 1
    15    7   22 1
    16    8   12 1
    17    8   23 1
    18    9   10 1
    19    9   24 1
    20    9   25 1
    21   10   11 ar
    22   10   13 ar
    23   11   14 ar
    24   12   15 ar
    25   12   16 ar
    26   13   17 ar
    27   14   18 ar
    28   14   26 1
    29   15   19 ar
    30   15   27 1
    31   16   20 ar
    32   16   29 1
    33   17   18 ar
    34   17   30 1
    35   19   21 ar
    36   20   21 ar
    37   20   31 1
