@<TRIPOS>MOLECULE
DB14879
   84    88     0     0     0
SMALL
USER_CHARGES

@<TRIPOS>ATOM
      1 Cl1         3.1252    3.5931   -0.1987 Cl        1 <0>        -0.0789
      2 S1         -1.6667   -1.5001    1.9399 S.3       1 <0>        -0.1310
      3 S2         -8.5815    1.7577    3.1210 S.3       1 <0>        -0.0604
      4 O1         -1.2759    1.8049   -1.3198 O.2       1 <0>        -0.2731
      5 O2          0.5088   -1.4475   -2.6368 O.co2     1 <0>        -0.5433
      6 O3          1.5896    0.4220   -1.8818 O.co2     1 <0>        -0.5433
      7 O4          4.4656    1.4556    1.6370 O.2       1 <0>        -0.2701
      8 O5         -4.1189    2.8196   -0.1816 O.2       1 <0>        -0.2683
      9 O6         -5.1594    0.2284   -1.5251 O.3       1 <0>        -0.3756
     10 O7          4.6411    5.8498   -1.3947 O.3       1 <0>        -0.5023
     11 O8          7.3689    5.9567   -1.7597 O.3       1 <0>        -0.5033
     12 O9         -4.9731   -1.5417   -4.6273 O.3       1 <0>        -0.4778
     13 O10        -3.4640   -0.3437   -3.4416 O.2       1 <0>        -0.2464
     14 N1          2.9550   -2.7569    0.2874 N.4       1 <0>         0.2475
     15 N2         -0.5532    0.1065    0.1421 N.am      1 <0>        -0.2532
     16 N3          5.2975    0.1786   -0.1118 N.am      1 <0>        -0.3062
     17 N4         -3.3916    0.9287    1.0053 N.am      1 <0>        -0.2963
     18 N5         -6.1436    0.4370   -0.5487 N.2       1 <0>        -0.0766
     19 N6         -6.1391    2.3890    2.5566 N.2       1 <0>        -0.2233
     20 N7         -6.9796    3.3174    4.5618 N.pl3     1 <0>        -0.3375
     21 C1          3.0122   -2.8433    1.8264 C.3       1 <0>        -0.0295
     22 C2          3.9160   -3.8470   -0.2299 C.3       1 <0>        -0.0295
     23 C3          1.5391   -3.0154   -0.2042 C.3       1 <0>        -0.0052
     24 C4          4.2228   -3.7078    2.1173 C.3       1 <0>        -0.0076
     25 C5          4.2080   -4.7085    0.9829 C.3       1 <0>        -0.0076
     26 C6          3.4076   -1.3848   -0.1879 C.3       1 <0>        -0.0138
     27 C7          0.5605   -1.9718    0.2776 C.2       1 <0>         0.0078
     28 C8          4.7962   -1.0881    0.3471 C.3       1 <0>         0.0521
     29 C9         -0.9969    0.1283    1.5236 C.3       1 <0>         0.1041
     30 C10         0.2814   -0.8259   -0.3847 C.2       1 <0>         0.0649
     31 C11        -0.0950   -2.3617    1.5988 C.3       1 <0>         0.0237
     32 C12        -1.9736    1.2522    1.0926 C.3       1 <0>         0.1286
     33 C13        -1.2315    1.1961   -0.2764 C.2       1 <0>         0.2438
     34 C14         0.8525   -0.5931   -1.7785 C.2       1 <0>         0.0861
     35 C15         5.0876    1.3647    0.5819 C.2       1 <0>         0.2458
     36 C16        -4.3141    1.7510    0.3750 C.2       1 <0>         0.2684
     37 C17         5.6478    2.5928   -0.0384 C.ar      1 <0>         0.0587
     38 C18        -5.7169    1.2048    0.4084 C.2       1 <0>         0.1898
     39 C19         4.8406    3.6614   -0.4282 C.ar      1 <0>         0.0980
     40 C20         7.0284    2.6565   -0.2273 C.ar      1 <0>        -0.0445
     41 C21        -6.6013    1.5649    1.5490 C.2       1 <0>         0.1067
     42 C22         5.4139    4.7939   -1.0067 C.ar      1 <0>         0.1777
     43 C23         7.6018    3.7887   -0.8058 C.ar      1 <0>        -0.0157
     44 C24         6.7946    4.8575   -1.1955 C.ar      1 <0>         0.1598
     45 C25        -7.9007    1.1223    1.6808 C.2       1 <0>         0.0067
     46 C26        -5.7046   -0.6154   -2.5273 C.3       1 <0>         0.2281
     47 C27        -7.0981    2.5593    3.4394 C.2       1 <0>         0.1562
     48 C28        -6.9078    0.0954   -3.1402 C.3       1 <0>        -0.0119
     49 C29        -6.0846   -1.9409   -1.8741 C.3       1 <0>        -0.0119
     50 C30        -4.5944   -0.8035   -3.5528 C.2       1 <0>         0.3512
     51 H1          2.1469   -3.4169    2.1670 H         1 <0>         0.0815
     52 H2          3.0099   -1.8524    2.2879 H         1 <0>         0.0815
     53 H3          4.8145   -3.4169   -0.6704 H         1 <0>         0.0815
     54 H4          3.4123   -4.4211   -1.0155 H         1 <0>         0.0815
     55 H5          1.5947   -3.0762   -1.2941 H         1 <0>         0.0866
     56 H6          1.2515   -4.0203    0.1308 H         1 <0>         0.0866
     57 H7          5.1550   -5.2472    0.8871 H         1 <0>         0.0319
     58 H8          5.1533   -3.1326    2.1142 H         1 <0>         0.0319
     59 H9          4.1458   -4.1968    3.0935 H         1 <0>         0.0319
     60 H10         3.4109   -5.4471    1.1302 H         1 <0>         0.0319
     61 H11         3.4041   -1.3896   -1.2823 H         1 <0>         0.0831
     62 H12         2.7382   -0.6241    0.2159 H         1 <0>         0.0831
     63 H13         4.8107   -1.0409    1.4388 H         1 <0>         0.0515
     64 H14         5.5611   -1.8031    0.0439 H         1 <0>         0.0515
     65 H15        -0.2143    0.4783    2.2084 H         1 <0>         0.0644
     66 H16        -0.3213   -3.4320    1.6204 H         1 <0>         0.0425
     67 H17         0.5594   -2.1224    2.4393 H         1 <0>         0.0425
     68 H18        -1.8093    2.1945    1.6282 H         1 <0>         0.0622
     69 H19         5.8055    0.1999   -0.9915 H         1 <0>         0.1492
     70 H20        -3.7368    0.0659    1.4194 H         1 <0>         0.1499
     71 H21         7.6725    1.8346    0.0752 H         1 <0>         0.0627
     72 H22         8.6789    3.8254   -0.9461 H         1 <0>         0.0655
     73 H23        -8.4739    0.4784    1.0284 H         1 <0>         0.0716
     74 H24         3.7129    5.6400   -1.1924 H         1 <0>         0.2923
     75 H25         8.3308    5.8213   -1.8101 H         1 <0>         0.2923
     76 H26        -7.7315    0.2232   -2.4294 H         1 <0>         0.0274
     77 H27        -7.3043   -0.4593   -3.9977 H         1 <0>         0.0274
     78 H28        -6.3930   -2.6781   -2.6234 H         1 <0>         0.0274
     79 H29        -6.9084   -1.8397   -1.1592 H         1 <0>         0.0274
     80 H30        -6.6306    1.0966   -3.4910 H         1 <0>         0.0274
     81 H31        -5.2339   -2.3612   -1.3245 H         1 <0>         0.0274
     82 H32        -6.1202    3.8078    4.7871 H         1 <0>         0.1442
     83 H33        -7.7455    3.4232    5.2189 H         1 <0>         0.1442
     84 H34        -4.2425   -1.6491   -5.2731 H         1 <0>         0.2952
@<TRIPOS>BOND
     1    1   39 1
     2    2   29 1
     3    2   31 1
     4    3   45 1
     5    3   47 1
     6    4   33 2
     7    5   34 2
     8    6   34 1
     9    7   35 2
    10    8   36 2
    11    9   18 1
    12    9   46 1
    13   10   42 1
    14   10   74 1
    15   11   44 1
    16   11   75 1
    17   12   50 1
    18   12   84 1
    19   13   50 2
    20   14   21 1
    21   14   22 1
    22   14   23 1
    23   14   26 1
    24   15   29 1
    25   15   30 1
    26   15   33 am
    27   16   28 1
    28   16   35 am
    29   16   69 1
    30   17   32 1
    31   17   36 am
    32   17   70 1
    33   18   38 2
    34   19   41 1
    35   19   47 2
    36   20   47 1
    37   20   82 1
    38   20   83 1
    39   21   24 1
    40   21   51 1
    41   21   52 1
    42   22   25 1
    43   22   53 1
    44   22   54 1
    45   23   27 1
    46   23   55 1
    47   23   56 1
    48   24   25 1
    49   24   58 1
    50   24   59 1
    51   25   57 1
    52   25   60 1
    53   26   28 1
    54   26   61 1
    55   26   62 1
    56   27   30 2
    57   27   31 1
    58   28   63 1
    59   28   64 1
    60   29   32 1
    61   29   65 1
    62   30   34 1
    63   31   66 1
    64   31   67 1
    65   32   33 1
    66   32   68 1
    67   35   37 1
    68   36   38 1
    69   37   39 ar
    70   37   40 ar
    71   38   41 1
    72   39   42 ar
    73   40   43 ar
    74   40   71 1
    75   41   45 2
    76   42   44 ar
    77   43   44 ar
    78   43   72 1
    79   45   73 1
    80   46   48 1
    81   46   49 1
    82   46   50 1
    83   48   76 1
    84   48   77 1
    85   48   80 1
    86   49   78 1
    87   49   79 1
    88   49   81 1
