@<TRIPOS>MOLECULE
DB14201
   28    31     0     0     0
SMALL
USER_CHARGES

@<TRIPOS>ATOM
      1 S1         -1.6133   -0.2482    1.7080 S.3       1 <0>        -0.0602
      2 S2          1.6226   -0.2678   -1.7199 S.3       1 <0>        -0.0602
      3 S3         -0.3677   -2.9111    0.9648 S.3       1 <0>        -0.0230
      4 S4          0.3765   -2.9262   -0.9612 S.3       1 <0>        -0.0230
      5 N1         -2.5987   -1.8465   -0.0603 N.2       1 <0>        -0.2319
      6 N2          2.5987   -1.8483    0.0694 N.2       1 <0>        -0.2319
      7 C1         -3.0629    0.2427    0.9140 C.ar      1 <0>         0.0400
      8 C2          3.0659    0.2327   -0.9205 C.ar      1 <0>         0.0400
      9 C3         -3.4397   -0.7447   -0.0014 C.ar      1 <0>         0.0795
     10 C4          3.4382   -0.7457    0.0062 C.ar      1 <0>         0.0795
     11 C5         -3.8126    1.4171    1.0884 C.ar      1 <0>        -0.0459
     12 C6          3.8148    1.4068   -1.1004 C.ar      1 <0>        -0.0459
     13 C7         -4.6087   -0.5474   -0.7679 C.ar      1 <0>        -0.0352
     14 C8          4.6016   -0.5395    0.7788 C.ar      1 <0>        -0.0352
     15 C9         -1.6116   -1.6920    0.7910 C.2       1 <0>         0.1464
     16 C10         1.6297   -1.6910   -0.7881 C.2       1 <0>         0.1464
     17 C11        -4.9652    1.5876    0.3174 C.ar      1 <0>        -0.0606
     18 C12         4.9619    1.5863   -0.3232 C.ar      1 <0>        -0.0606
     19 C13        -5.3598    0.6193   -0.5993 C.ar      1 <0>        -0.0597
     20 C14         5.3519    0.6270    0.6048 C.ar      1 <0>        -0.0597
     21 H1         -3.5105    2.1772    1.8022 H         1 <0>         0.0629
     22 H2          3.5162    2.1601   -1.8230 H         1 <0>         0.0629
     23 H3         -4.9262   -1.2972   -1.4871 H         1 <0>         0.0639
     24 H4          4.9154   -1.2823    1.5068 H         1 <0>         0.0639
     25 H5         -5.5599    2.4895    0.4368 H         1 <0>         0.0618
     26 H6          5.5558    2.4881   -0.4467 H         1 <0>         0.0618
     27 H7         -6.2592    0.7693   -1.1903 H         1 <0>         0.0618
     28 H8          6.2470    0.7838    1.2006 H         1 <0>         0.0618
@<TRIPOS>BOND
     1    1    7 1
     2    1   15 1
     3    2    8 1
     4    2   16 1
     5    3    4 1
     6    3   15 1
     7    4   16 1
     8    5    9 1
     9    5   15 2
    10    6   10 1
    11    6   16 2
    12    7    9 ar
    13    7   11 ar
    14    8   10 ar
    15    8   12 ar
    16    9   13 ar
    17   10   14 ar
    18   11   17 ar
    19   11   21 1
    20   12   18 ar
    21   12   22 1
    22   13   19 ar
    23   13   23 1
    24   14   20 ar
    25   14   24 1
    26   17   19 ar
    27   17   25 1
    28   18   20 ar
    29   18   26 1
    30   19   27 1
    31   20   28 1
