@<TRIPOS>MOLECULE
DB14723
   53    57     0     0     0
SMALL
USER_CHARGES

@<TRIPOS>ATOM
      1 F1          0.6377   -2.8228    1.3657 F         1 <0>        -0.2051
      2 F2          2.2000   -1.9599   -3.8044 F         1 <0>        -0.2055
      3 O1         -5.0695   -1.3855    2.1510 O.3       1 <0>        -0.3902
      4 O2         -3.9163    2.8244   -0.4878 O.2       1 <0>        -0.2523
      5 N1          3.2225    0.3857    0.5308 N.pl3     1 <0>        -0.3079
      6 N2         -4.0699    0.5977    0.0490 N.am      1 <0>        -0.2828
      7 N3          1.1446    1.3198    0.1992 N.2       1 <0>        -0.2112
      8 N4          0.9827    3.6571   -0.3400 N.pl3     1 <0>        -0.2198
      9 N5         -1.9673    1.6198   -0.0466 N.am      1 <0>        -0.2649
     10 N6          0.0488    4.6066   -0.6082 N.2       1 <0>        -0.1715
     11 C1          2.7041   -0.9212    0.9458 C.3       1 <0>         0.0528
     12 C2          3.9402   -1.6454    1.5022 C.3       1 <0>        -0.0287
     13 C3          5.1047   -1.0166    0.7501 C.3       1 <0>        -0.0352
     14 C4          4.6784    0.4390    0.6017 C.3       1 <0>         0.0142
     15 C5          2.0355   -1.6859   -0.1805 C.ar      1 <0>         0.0108
     16 C6          2.4513    1.4549    0.2435 C.cat     1 <0>         0.1256
     17 C7         -4.7680   -1.5461    0.7690 C.3       1 <0>         0.0724
     18 C8         -5.8668   -0.9224   -0.0837 C.3       1 <0>        -0.0095
     19 C9         -3.5374   -0.7142    0.4276 C.3       1 <0>         0.0422
     20 C10        -5.5220    0.5602   -0.0554 C.3       1 <0>         0.0186
     21 C11         1.0257   -2.6061    0.1009 C.ar      1 <0>         0.1285
     22 C12         2.4322   -1.4677   -1.4998 C.ar      1 <0>        -0.0188
     23 C13         3.1451    2.7655   -0.0150 C.2       1 <0>        -0.0034
     24 C14        -3.3473    1.7741   -0.1844 C.2       1 <0>         0.3066
     25 C15         0.3968    2.4195   -0.0932 C.2       1 <0>         0.1787
     26 C16        -0.9621    2.6040   -0.2128 C.2       1 <0>         0.0993
     27 C17         2.3613    3.8099   -0.2963 C.2       1 <0>         0.0347
     28 C18         1.8190   -2.1695   -2.5377 C.ar      1 <0>         0.1239
     29 C19         0.4127   -3.3081   -0.9369 C.ar      1 <0>        -0.0234
     30 C20         0.8094   -3.0898   -2.2562 C.ar      1 <0>        -0.0237
     31 C21        -1.1139    3.9608   -0.5284 C.2       1 <0>         0.0732
     32 H1          1.9803   -0.7809    1.7594 H         1 <0>         0.0551
     33 H2          4.0451   -1.4185    2.5709 H         1 <0>         0.0287
     34 H3          3.9085   -2.7338    1.3919 H         1 <0>         0.0287
     35 H4          5.2146   -1.4844   -0.2351 H         1 <0>         0.0281
     36 H5          6.0557   -1.1202    1.2802 H         1 <0>         0.0281
     37 H6          4.9935    1.0173    1.4778 H         1 <0>         0.0464
     38 H7          5.1322    0.8621   -0.3007 H         1 <0>         0.0464
     39 H8         -4.6310   -2.6126    0.5694 H         1 <0>         0.0609
     40 H9         -5.7982   -1.2977   -1.1115 H         1 <0>         0.0306
     41 H10        -6.8749   -1.1074    0.2982 H         1 <0>         0.0306
     42 H11        -3.0123   -1.1137   -0.4466 H         1 <0>         0.0490
     43 H12        -2.8412   -0.6099    1.2651 H         1 <0>         0.0490
     44 H13        -5.9326    1.0537    0.8325 H         1 <0>         0.0466
     45 H14        -5.8649    1.0953   -0.9459 H         1 <0>         0.0466
     46 H15         3.2211   -0.7673   -1.7567 H         1 <0>         0.0650
     47 H16         4.2190    2.8746    0.0307 H         1 <0>         0.0667
     48 H17         2.7583    4.7981   -0.4948 H         1 <0>         0.0832
     49 H18        -1.5987    0.7013    0.1782 H         1 <0>         0.1565
     50 H19        -4.3278   -1.7595    2.6566 H         1 <0>         0.2098
     51 H20        -0.3739   -4.0240   -0.7174 H         1 <0>         0.0647
     52 H21         0.3321   -3.6360   -3.0645 H         1 <0>         0.0647
     53 H22        -2.0173    4.5254   -0.7070 H         1 <0>         0.0868
@<TRIPOS>BOND
     1    1   21 1
     2    2   28 1
     3    3   17 1
     4    3   50 1
     5    4   24 2
     6    5   11 1
     7    5   14 1
     8    5   16 1
     9    6   19 1
    10    6   20 1
    11    6   24 am
    12    7   16 1
    13    7   25 2
    14    8   10 2
    15    8   25 1
    16    8   27 1
    17    9   24 am
    18    9   26 1
    19    9   49 1
    20   10   31 1
    21   11   12 1
    22   11   15 1
    23   11   32 1
    24   12   13 1
    25   12   33 1
    26   12   34 1
    27   13   14 1
    28   13   35 1
    29   13   36 1
    30   14   37 1
    31   14   38 1
    32   15   21 ar
    33   15   22 ar
    34   16   23 1
    35   17   18 1
    36   17   19 1
    37   17   39 1
    38   18   20 1
    39   18   40 1
    40   18   41 1
    41   19   42 1
    42   19   43 1
    43   20   44 1
    44   20   45 1
    45   21   29 ar
    46   22   28 ar
    47   22   46 1
    48   23   27 2
    49   23   47 1
    50   25   26 1
    51   26   31 2
    52   27   48 1
    53   28   30 ar
    54   29   30 ar
    55   29   51 1
    56   30   52 1
    57   31   53 1
