@<TRIPOS>MOLECULE
DB14187
   32    31     0     0     0
SMALL
USER_CHARGES

@<TRIPOS>ATOM
      1 O1         -3.9334    0.8252    0.9598 O.3       1 <0>        -0.3891
      2 O2          5.7262   -0.1194    0.2062 O.2       1 <0>        -0.3010
      3 C1         -0.3630    0.0355   -0.0954 C.3       1 <0>        -0.0502
      4 C2          0.9551    0.5878    0.4615 C.3       1 <0>        -0.0500
      5 C3         -1.5655    0.6721    0.6096 C.3       1 <0>        -0.0245
      6 C4          2.2082    0.0419   -0.2560 C.3       1 <0>        -0.0375
      7 C5         -2.9468    0.1387    0.1774 C.3       1 <0>         0.0605
      8 C6          3.4580    0.7568    0.2862 C.3       1 <0>         0.0054
      9 C7          2.3409   -1.4760   -0.0838 C.3       1 <0>        -0.0620
     10 C8         -3.2475    0.4188   -1.2964 C.3       1 <0>        -0.0363
     11 C9         -3.1127   -1.3514    0.4782 C.3       1 <0>        -0.0363
     12 C10         4.7485    0.3330   -0.3794 C.2       1 <0>         0.1206
     13 H1         -0.4103    0.2309   -1.1720 H         1 <0>         0.0266
     14 H2         -0.3935   -1.0481    0.0473 H         1 <0>         0.0266
     15 H3          1.0184    0.3641    1.5343 H         1 <0>         0.0268
     16 H4          0.9433    1.6816    0.3686 H         1 <0>         0.0268
     17 H5         -1.5387    1.7597    0.4564 H         1 <0>         0.0293
     18 H6         -1.4622    0.5376    1.6952 H         1 <0>         0.0293
     19 H7          2.1254    0.2542   -1.3297 H         1 <0>         0.0302
     20 H8          3.5610    0.5819    1.3639 H         1 <0>         0.0341
     21 H9          3.3662    1.8389    0.1369 H         1 <0>         0.0341
     22 H10         2.3777   -1.7522    0.9753 H         1 <0>         0.0233
     23 H11         1.5022   -2.0053   -0.5456 H         1 <0>         0.0233
     24 H12         3.2491   -1.8551   -0.5634 H         1 <0>         0.0233
     25 H13        -2.5904   -0.1456   -1.9650 H         1 <0>         0.0257
     26 H14        -3.1375    1.4859   -1.5208 H         1 <0>         0.0257
     27 H15        -4.2848    0.1583   -1.5367 H         1 <0>         0.0257
     28 H16        -2.8949   -1.5626    1.5313 H         1 <0>         0.0257
     29 H17        -2.4639   -1.9751   -0.1438 H         1 <0>         0.0257
     30 H18        -4.1489   -1.6676    0.3094 H         1 <0>         0.0257
     31 H19        -3.8637    1.7752    0.7635 H         1 <0>         0.2101
     32 H20         4.7773    0.4806   -1.4731 H         1 <0>         0.1026
@<TRIPOS>BOND
     1    1    7 1
     2    1   31 1
     3    2   12 2
     4    3    4 1
     5    3    5 1
     6    3   13 1
     7    3   14 1
     8    4    6 1
     9    4   15 1
    10    4   16 1
    11    5    7 1
    12    5   17 1
    13    5   18 1
    14    6    8 1
    15    6    9 1
    16    6   19 1
    17    7   10 1
    18    7   11 1
    19    8   12 1
    20    8   20 1
    21    8   21 1
    22    9   22 1
    23    9   23 1
    24    9   24 1
    25   10   25 1
    26   10   26 1
    27   10   27 1
    28   11   28 1
    29   11   29 1
    30   11   30 1
    31   12   32 1
