@<TRIPOS>MOLECULE
DB14632
   71    74     0     0     0
SMALL
USER_CHARGES

@<TRIPOS>ATOM
      1 O1         -0.4139   -1.8836    2.0008 O.3       1 <0>        -0.3804
      2 O2          1.5049    1.7450   -1.2258 O.3       1 <0>        -0.3914
      3 O3         -2.3446   -2.4618   -0.7623 O.2       1 <0>        -0.2907
      4 O4         -4.0577   -0.9600    0.6623 O.3       1 <0>        -0.4568
      5 O5          7.6119    2.5336    2.1300 O.2       1 <0>        -0.2879
      6 O6         -4.6228    0.4682    2.3848 O.2       1 <0>        -0.2508
      7 C1          0.5057   -0.9654   -0.0874 C.3       1 <0>         0.0092
      8 C2          1.8687   -1.6427    0.1771 C.3       1 <0>        -0.0292
      9 C3          3.0601   -0.8818   -0.4237 C.3       1 <0>        -0.0311
     10 C4          3.1131    0.5532    0.2096 C.3       1 <0>         0.0007
     11 C5         -0.4303   -2.0092    0.5818 C.3       1 <0>         0.1326
     12 C6          0.5466    0.4287    0.5701 C.3       1 <0>        -0.0178
     13 C7          1.6313   -3.0914   -0.2411 C.3       1 <0>        -0.0463
     14 C8          1.7403    1.2894    0.0990 C.3       1 <0>         0.0600
     15 C9          4.3784    1.3702   -0.2688 C.3       1 <0>         0.0131
     16 C10         0.1744   -3.3739    0.1806 C.3       1 <0>        -0.0161
     17 C11         4.3702   -1.6498   -0.1724 C.3       1 <0>        -0.0458
     18 C12         0.1605   -0.8510   -1.5982 C.3       1 <0>        -0.0562
     19 C13         5.5954   -0.8721   -0.6366 C.3       1 <0>        -0.0302
     20 C14         5.6113    0.4977   -0.0081 C.2       1 <0>        -0.0559
     21 C15        -1.8774   -1.8769    0.2139 C.2       1 <0>         0.2022
     22 C16         4.3590    1.7387   -1.7695 C.3       1 <0>        -0.0520
     23 C17         4.4660    2.6865    0.4901 C.2       1 <0>        -0.0701
     24 C18         6.6424    0.8747    0.7639 C.2       1 <0>        -0.0149
     25 C19        -2.7180   -0.9896    1.1071 C.3       1 <0>         0.1530
     26 C20         5.4890    3.0671    1.2616 C.2       1 <0>        -0.0180
     27 C21         6.6591    2.1880    1.4397 C.2       1 <0>         0.1787
     28 C22        -4.9223   -0.1857    1.3941 C.2       1 <0>         0.3080
     29 C23        -6.3143   -0.2328    0.8050 C.3       1 <0>         0.0498
     30 C24        -6.6291    0.9051   -0.1905 C.3       1 <0>        -0.0277
     31 C25        -8.0956    0.7570   -0.6398 C.3       1 <0>        -0.0596
     32 C26        -5.7269    0.8217   -1.4328 C.3       1 <0>        -0.0596
     33 C27        -6.4590    2.2830    0.4707 C.3       1 <0>        -0.0596
     34 H1          2.0400   -1.6673    1.2664 H         1 <0>         0.0310
     35 H2          2.9334   -0.7992   -1.5079 H         1 <0>         0.0308
     36 H3          3.2515    0.3915    1.2928 H         1 <0>         0.0340
     37 H4          0.6200    0.3305    1.6600 H         1 <0>         0.0297
     38 H5         -0.3876    0.9619    0.3600 H         1 <0>         0.0297
     39 H6          2.3246   -3.7801    0.2524 H         1 <0>         0.0269
     40 H7          1.7499   -3.2211   -1.3226 H         1 <0>         0.0269
     41 H8          1.7627    2.1813    0.7348 H         1 <0>         0.0596
     42 H9         -0.3468   -3.8559   -0.6533 H         1 <0>         0.0297
     43 H10         0.1650   -4.0799    1.0191 H         1 <0>         0.0297
     44 H11         4.3470   -2.6125   -0.6967 H         1 <0>         0.0271
     45 H12         4.4689   -1.8762    0.8976 H         1 <0>         0.0271
     46 H13        -0.7514   -0.2595   -1.7415 H         1 <0>         0.0236
     47 H14         0.9471   -0.3729   -2.1845 H         1 <0>         0.0236
     48 H15        -0.0116   -1.8255   -2.0667 H         1 <0>         0.0236
     49 H16         5.5953   -0.7819   -1.7288 H         1 <0>         0.0310
     50 H17         6.4960   -1.4422   -0.3776 H         1 <0>         0.0310
     51 H18         3.6605    2.5531   -1.9901 H         1 <0>         0.0241
     52 H19         5.3456    2.0865   -2.1034 H         1 <0>         0.0241
     53 H20         4.0856    0.8927   -2.4073 H         1 <0>         0.0241
     54 H21         3.6434    3.3890    0.3763 H         1 <0>         0.0582
     55 H22        -0.8157   -2.6815    2.3855 H         1 <0>         0.2108
     56 H23         0.6664    2.2369   -1.2262 H         1 <0>         0.2098
     57 H24         7.4953    0.2263    0.9352 H         1 <0>         0.0655
     58 H25        -2.3093    0.0239    1.0891 H         1 <0>         0.0779
     59 H26        -2.7127   -1.3892    2.1259 H         1 <0>         0.0779
     60 H27         5.4905    4.0280    1.7628 H         1 <0>         0.0653
     61 H28        -6.4576   -1.2136    0.3329 H         1 <0>         0.0383
     62 H29        -7.0161   -0.2121    1.6493 H         1 <0>         0.0383
     63 H30        -8.7801    0.8259    0.2132 H         1 <0>         0.0235
     64 H31        -8.2642   -0.2103   -1.1265 H         1 <0>         0.0235
     65 H32        -8.3743    1.5408   -1.3533 H         1 <0>         0.0235
     66 H33        -4.6749    0.9916   -1.1797 H         1 <0>         0.0235
     67 H34        -5.8033   -0.1608   -1.9116 H         1 <0>         0.0235
     68 H35        -6.0083    1.5766   -2.1759 H         1 <0>         0.0235
     69 H36        -7.0580    2.3595    1.3850 H         1 <0>         0.0235
     70 H37        -6.7791    3.0856   -0.2039 H         1 <0>         0.0235
     71 H38        -5.4145    2.4804    0.7340 H         1 <0>         0.0235
@<TRIPOS>BOND
     1    1   11 1
     2    1   55 1
     3    2   14 1
     4    2   56 1
     5    3   21 2
     6    4   25 1
     7    4   28 1
     8    5   27 2
     9    6   28 2
    10    7    8 1
    11    7   11 1
    12    7   12 1
    13    7   18 1
    14    8    9 1
    15    8   13 1
    16    8   34 1
    17    9   10 1
    18    9   17 1
    19    9   35 1
    20   10   14 1
    21   10   15 1
    22   10   36 1
    23   11   16 1
    24   11   21 1
    25   12   14 1
    26   12   37 1
    27   12   38 1
    28   13   16 1
    29   13   39 1
    30   13   40 1
    31   14   41 1
    32   15   20 1
    33   15   22 1
    34   15   23 1
    35   16   42 1
    36   16   43 1
    37   17   19 1
    38   17   44 1
    39   17   45 1
    40   18   46 1
    41   18   47 1
    42   18   48 1
    43   19   20 1
    44   19   49 1
    45   19   50 1
    46   20   24 2
    47   21   25 1
    48   22   51 1
    49   22   52 1
    50   22   53 1
    51   23   26 2
    52   23   54 1
    53   24   27 1
    54   24   57 1
    55   25   58 1
    56   25   59 1
    57   26   27 1
    58   26   60 1
    59   28   29 1
    60   29   30 1
    61   29   61 1
    62   29   62 1
    63   30   31 1
    64   30   32 1
    65   30   33 1
    66   31   63 1
    67   31   64 1
    68   31   65 1
    69   32   66 1
    70   32   67 1
    71   32   68 1
    72   33   69 1
    73   33   70 1
    74   33   71 1
