@<TRIPOS>MOLECULE
DB14199
   16    15     0     0     0
SMALL
USER_CHARGES

@<TRIPOS>ATOM
      1 Br1        -0.8460   -0.8635    2.1684 Br        1 <0>        -0.0674
      2 Br2        -2.4229    1.2589   -1.6781 Br        1 <0>        -0.0893
      3 N1         -1.1822   -2.4799   -1.1962 N.1       1 <0>        -0.1951
      4 N2          3.8584    1.0273   -0.4964 N.1       1 <0>        -0.1966
      5 C1         -0.8758   -0.3001    0.2517 C.3       1 <0>         0.1223
      6 C2          0.4517    0.4338   -0.0489 C.3       1 <0>        -0.0111
      7 C3          1.7379   -0.3802    0.1734 C.3       1 <0>         0.0370
      8 C4         -2.0976    0.6244    0.1407 C.3       1 <0>         0.0316
      9 C5         -1.0477   -1.5187   -0.5597 C.1       1 <0>         0.0815
     10 C6          2.9230    0.4075   -0.2011 C.1       1 <0>         0.0626
     11 H1          0.5082    1.3462    0.5621 H         1 <0>         0.0298
     12 H2          0.4504    0.7736   -1.0936 H         1 <0>         0.0298
     13 H3          1.7167   -1.2965   -0.4265 H         1 <0>         0.0418
     14 H4          1.8426   -0.6795    1.2204 H         1 <0>         0.0418
     15 H5         -1.9900    1.5261    0.7530 H         1 <0>         0.0406
     16 H6         -3.0267    0.1204    0.4307 H         1 <0>         0.0406
@<TRIPOS>BOND
     1    1    5 1
     2    2    8 1
     3    3    9 3
     4    4   10 3
     5    5    6 1
     6    5    8 1
     7    5    9 1
     8    6    7 1
     9    6   11 1
    10    6   12 1
    11    7   10 1
    12    7   13 1
    13    7   14 1
    14    8   15 1
    15    8   16 1
