@<TRIPOS>MOLECULE
DB14657
   62    65     0     0     0
SMALL
USER_CHARGES

@<TRIPOS>ATOM
      1 F1         -4.9372   -2.3936   -0.1153 F         1 <0>        -0.2407
      2 O1          2.2716   -0.8526   -1.6461 O.3       1 <0>        -0.3801
      3 O2         -0.8175    2.0281    1.4744 O.3       1 <0>        -0.3914
      4 O3          4.1946   -1.4227    0.8897 O.2       1 <0>        -0.2907
      5 O4          5.2522    0.9145   -0.1200 O.3       1 <0>        -0.4570
      6 O5         -6.5346    1.5498   -2.5549 O.2       1 <0>        -0.2879
      7 O6          5.0461    3.1856   -0.4903 O.2       1 <0>        -0.2512
      8 C1          0.9201   -0.3224    0.3676 C.3       1 <0>         0.0094
      9 C2         -0.2183   -1.2760   -0.0575 C.3       1 <0>        -0.0289
     10 C3         -1.6094   -0.8462    0.4377 C.3       1 <0>        -0.0284
     11 C4         -1.9417    0.5681   -0.1542 C.3       1 <0>         0.0009
     12 C5          2.1307   -1.0868   -0.2502 C.3       1 <0>         0.1351
     13 C6          0.3027   -2.6602    0.3272 C.3       1 <0>        -0.0437
     14 C7          0.6074    1.0654   -0.2304 C.3       1 <0>        -0.0178
     15 C8          1.8327   -2.5811    0.0842 C.3       1 <0>        -0.0071
     16 C9         -0.7995    1.5989    0.1196 C.3       1 <0>         0.0600
     17 C10        -3.4103    1.0400    0.1899 C.3       1 <0>         0.0158
     18 C11        -2.6684   -1.8817    0.0230 C.3       1 <0>        -0.0143
     19 C12         1.0842   -0.2189    1.9091 C.3       1 <0>        -0.0562
     20 C13        -4.0846   -1.4379    0.3582 C.3       1 <0>         0.1235
     21 C14        -4.3642   -0.0824   -0.2409 C.2       1 <0>        -0.0226
     22 C15         3.4639   -0.6482    0.2738 C.2       1 <0>         0.2024
     23 C16         2.2966   -3.5794   -0.9724 C.3       1 <0>        -0.0594
     24 C17        -3.6390    1.3214    1.6918 C.3       1 <0>        -0.0519
     25 C18        -3.7212    2.3390   -0.5390 C.2       1 <0>        -0.0701
     26 C19        -5.3616    0.0897   -1.1228 C.2       1 <0>        -0.0122
     27 C20         3.8511    0.7900    0.0020 C.3       1 <0>         0.1530
     28 C21        -4.7115    2.5136   -1.4191 C.2       1 <0>        -0.0180
     29 C22        -5.6117    1.3982   -1.7616 C.2       1 <0>         0.1788
     30 C23         5.7280    2.1770   -0.3684 C.2       1 <0>         0.3043
     31 C24         7.2229    2.1571   -0.4721 C.3       1 <0>         0.0332
     32 H1         -0.2727   -1.2741   -1.1591 H         1 <0>         0.0310
     33 H2         -1.6123   -0.7953    1.5312 H         1 <0>         0.0308
     34 H3         -1.9248    0.4340   -1.2501 H         1 <0>         0.0340
     35 H4          0.0979   -2.8764    1.3824 H         1 <0>         0.0272
     36 H5         -0.1739   -3.4477   -0.2663 H         1 <0>         0.0272
     37 H6          0.6756    1.0205   -1.3244 H         1 <0>         0.0297
     38 H7          1.3495    1.7974    0.1031 H         1 <0>         0.0297
     39 H8          2.3072   -2.8733    1.0300 H         1 <0>         0.0330
     40 H9         -0.9682    2.4915   -0.4929 H         1 <0>         0.0596
     41 H10        -2.4781   -2.8417    0.5181 H         1 <0>         0.0299
     42 H11        -2.5999   -2.0851   -1.0544 H         1 <0>         0.0299
     43 H12         0.1501    0.0166    2.4228 H         1 <0>         0.0236
     44 H13         1.4506   -1.1472    2.3585 H         1 <0>         0.0236
     45 H14         1.7982    0.5667    2.1773 H         1 <0>         0.0236
     46 H15        -4.2293   -1.4071    1.4428 H         1 <0>         0.0699
     47 H16         1.7890   -3.4209   -1.9296 H         1 <0>         0.0233
     48 H17         3.3767   -3.5049   -1.1342 H         1 <0>         0.0233
     49 H18         2.0789   -4.6036   -0.6502 H         1 <0>         0.0233
     50 H19        -4.7097    1.4137    1.9174 H         1 <0>         0.0241
     51 H20        -3.2439    0.5280    2.3332 H         1 <0>         0.0241
     52 H21        -3.1785    2.2614    2.0147 H         1 <0>         0.0241
     53 H22         3.0078   -1.3887   -1.9857 H         1 <0>         0.2108
     54 H23        -3.1067    3.2061   -0.3067 H         1 <0>         0.0582
     55 H24        -0.1274    2.7046    1.5810 H         1 <0>         0.2098
     56 H25        -6.0153   -0.7246   -1.4163 H         1 <0>         0.0656
     57 H26         3.5051    1.4005    0.8414 H         1 <0>         0.0779
     58 H27         3.3954    1.1411   -0.9278 H         1 <0>         0.0779
     59 H28        -4.8843    3.4739   -1.8911 H         1 <0>         0.0653
     60 H29         7.5278    1.5086   -1.2973 H         1 <0>         0.0342
     61 H30         7.6544    1.8102    0.4701 H         1 <0>         0.0342
     62 H31         7.5866    3.1691   -0.6709 H         1 <0>         0.0342
@<TRIPOS>BOND
     1    1   20 1
     2    2   12 1
     3    2   53 1
     4    3   16 1
     5    3   55 1
     6    4   22 2
     7    5   27 1
     8    5   30 1
     9    6   29 2
    10    7   30 2
    11    8    9 1
    12    8   12 1
    13    8   14 1
    14    8   19 1
    15    9   10 1
    16    9   13 1
    17    9   32 1
    18   10   11 1
    19   10   18 1
    20   10   33 1
    21   11   16 1
    22   11   17 1
    23   11   34 1
    24   12   15 1
    25   12   22 1
    26   13   15 1
    27   13   35 1
    28   13   36 1
    29   14   16 1
    30   14   37 1
    31   14   38 1
    32   15   23 1
    33   15   39 1
    34   16   40 1
    35   17   21 1
    36   17   24 1
    37   17   25 1
    38   18   20 1
    39   18   41 1
    40   18   42 1
    41   19   43 1
    42   19   44 1
    43   19   45 1
    44   20   21 1
    45   20   46 1
    46   21   26 2
    47   22   27 1
    48   23   47 1
    49   23   48 1
    50   23   49 1
    51   24   50 1
    52   24   51 1
    53   24   52 1
    54   25   28 2
    55   25   54 1
    56   26   29 1
    57   26   56 1
    58   27   57 1
    59   27   58 1
    60   28   29 1
    61   28   59 1
    62   30   31 1
    63   31   60 1
    64   31   61 1
    65   31   62 1
