@<TRIPOS>MOLECULE
DB14084
   28    28     0     0     0
SMALL
USER_CHARGES

@<TRIPOS>ATOM
      1 O1         -0.2581    0.3588    0.0958 O.3       1 <0>        -0.4612
      2 O2          0.6093    2.4094    0.6811 O.2       1 <0>        -0.2450
      3 O3          5.7529   -1.1858   -0.3331 O.3       1 <0>        -0.5068
      4 C1         -2.5655   -0.2550   -0.0841 C.3       1 <0>        -0.0188
      5 C2         -4.0111    0.2199    0.0309 C.3       1 <0>        -0.0528
      6 C3         -1.5802    0.8603    0.2354 C.3       1 <0>         0.0928
      7 C4         -4.9910   -0.8847   -0.3306 C.3       1 <0>        -0.0652
      8 C5          2.0727    0.5984    0.1678 C.ar      1 <0>         0.0592
      9 C6          0.7473    1.2422    0.3493 C.2       1 <0>         0.3392
     10 C7          3.1397    1.3731   -0.2389 C.ar      1 <0>        -0.0443
     11 C8          2.1973   -0.7542    0.4117 C.ar      1 <0>        -0.0443
     12 C9          4.3854    0.7690   -0.4092 C.ar      1 <0>        -0.0194
     13 C10         3.4430   -1.3582    0.2416 C.ar      1 <0>        -0.0194
     14 C11         4.5371   -0.5967   -0.1689 C.ar      1 <0>         0.1169
     15 H1         -2.3885   -1.1023    0.5903 H         1 <0>         0.0298
     16 H2         -2.3690   -0.6318   -1.0958 H         1 <0>         0.0298
     17 H3         -4.1763    1.0762   -0.6334 H         1 <0>         0.0264
     18 H4         -4.2111    0.5596    1.0539 H         1 <0>         0.0264
     19 H5         -1.7262    1.6993   -0.4552 H         1 <0>         0.0697
     20 H6         -1.7315    1.2113    1.2631 H         1 <0>         0.0697
     21 H7         -4.8391   -1.2223   -1.3609 H         1 <0>         0.0230
     22 H8         -4.8736   -1.7462    0.3344 H         1 <0>         0.0230
     23 H9         -6.0201   -0.5231   -0.2400 H         1 <0>         0.0230
     24 H10         3.0336    2.4365   -0.4322 H         1 <0>         0.0627
     25 H11         1.3646   -1.3662    0.7450 H         1 <0>         0.0627
     26 H12         5.2341    1.3673   -0.7296 H         1 <0>         0.0654
     27 H13         3.5490   -2.4223    0.4351 H         1 <0>         0.0654
     28 H14         5.6753   -2.1325   -0.1236 H         1 <0>         0.2921
@<TRIPOS>BOND
     1    1    6 1
     2    1    9 1
     3    2    9 2
     4    3   14 1
     5    3   28 1
     6    4    5 1
     7    4    6 1
     8    4   15 1
     9    4   16 1
    10    5    7 1
    11    5   17 1
    12    5   18 1
    13    6   19 1
    14    6   20 1
    15    7   21 1
    16    7   22 1
    17    7   23 1
    18    8    9 1
    19    8   10 ar
    20    8   11 ar
    21   10   12 ar
    22   10   24 1
    23   11   13 ar
    24   11   25 1
    25   12   14 ar
    26   12   26 1
    27   13   14 ar
    28   13   27 1
