@<TRIPOS>MOLECULE
DB14754
   28    28     0     0     0
SMALL
USER_CHARGES

@<TRIPOS>ATOM
      1 O1         -2.2001    0.1885   -0.0885 O.3       1 <0>        -0.4490
      2 O2         -2.8484    1.7823   -1.6179 O.2       1 <0>        -0.2267
      3 N1         -1.6271   -2.5768   -0.0200 N.3       1 <0>        -0.3242
      4 N2         -3.7003    1.7617    0.5177 N.am      1 <0>        -0.2950
      5 C1         -0.6157   -1.6103   -0.4593 C.3       1 <0>         0.0435
      6 C2          0.2714   -1.2552    0.7526 C.3       1 <0>        -0.0093
      7 C3          1.3978   -0.2970    0.4488 C.ar      1 <0>        -0.0458
      8 C4         -1.3395   -0.3975   -1.0563 C.3       1 <0>         0.1094
      9 C5          2.6285   -0.7983    0.0549 C.ar      1 <0>        -0.0585
     10 C6          1.1809    1.0667    0.5686 C.ar      1 <0>        -0.0585
     11 C7          3.6691    0.0868   -0.2261 C.ar      1 <0>        -0.0615
     12 C8          2.2216    1.9518    0.2874 C.ar      1 <0>        -0.0615
     13 C9          3.4659    1.4618   -0.1101 C.ar      1 <0>        -0.0617
     14 C10        -2.9083    1.2860   -0.4979 C.2       1 <0>         0.3977
     15 H1         -0.0024   -2.0730   -1.2413 H         1 <0>         0.0495
     16 H2         -0.3379   -0.8374    1.5666 H         1 <0>         0.0329
     17 H3          0.7045   -2.1748    1.1714 H         1 <0>         0.0329
     18 H4         -0.6236    0.3450   -1.4249 H         1 <0>         0.0714
     19 H5         -1.9434   -0.7244   -1.9133 H         1 <0>         0.0714
     20 H6         -2.2054   -2.1634    0.7108 H         1 <0>         0.1186
     21 H7         -1.1705   -3.3841    0.4027 H         1 <0>         0.1186
     22 H8          2.7957   -1.8673   -0.0410 H         1 <0>         0.0620
     23 H9          0.2191    1.4605    0.8834 H         1 <0>         0.0620
     24 H10         4.6377   -0.2945   -0.5361 H         1 <0>         0.0618
     25 H11         2.0638    3.0224    0.3793 H         1 <0>         0.0618
     26 H12         4.2762    2.1509   -0.3287 H         1 <0>         0.0618
     27 H13        -3.7150    1.3162    1.4289 H         1 <0>         0.1482
     28 H14        -4.2947    2.5736    0.3885 H         1 <0>         0.1482
@<TRIPOS>BOND
     1    1    8 1
     2    1   14 1
     3    2   14 2
     4    3    5 1
     5    3   20 1
     6    3   21 1
     7    4   14 am
     8    4   27 1
     9    4   28 1
    10    5    6 1
    11    5    8 1
    12    5   15 1
    13    6    7 1
    14    6   16 1
    15    6   17 1
    16    7    9 ar
    17    7   10 ar
    18    8   18 1
    19    8   19 1
    20    9   11 ar
    21    9   22 1
    22   10   12 ar
    23   10   23 1
    24   11   13 ar
    25   11   24 1
    26   12   13 ar
    27   12   25 1
    28   13   26 1
