@<TRIPOS>MOLECULE
DB14082
   42    42     0     0     0
SMALL
USER_CHARGES

@<TRIPOS>ATOM
      1 S1          3.0735    2.5539    0.9468 S.3       1 <0>        -0.0737
      2 O1          1.2780   -1.1984   -1.5610 O.2       1 <0>        -0.2741
      3 O2         -0.9960   -1.7840    1.2920 O.2       1 <0>        -0.2741
      4 O3          2.8836   -0.3682    1.9935 O.2       1 <0>        -0.2749
      5 O4          2.3888    1.6901   -1.4399 O.2       1 <0>        -0.2797
      6 O5         -3.3551    0.1016   -0.6698 O.3       1 <0>        -0.4795
      7 O6         -4.9247    0.4254    0.9364 O.2       1 <0>        -0.2492
      8 N1          0.7307   -3.0820   -0.3142 N.am      1 <0>        -0.3054
      9 N2          3.6073   -0.9639   -0.1352 N.am      1 <0>        -0.3060
     10 N3         -2.8352   -2.3703   -0.0024 N.am      1 <0>        -0.3036
     11 C1          2.9783   -2.2496   -0.2042 C.3       1 <0>         0.0881
     12 C2         -0.6679   -3.1518   -0.6721 C.3       1 <0>         0.0882
     13 C3          1.5910   -2.1042   -0.7924 C.2       1 <0>         0.2306
     14 C4         -1.4847   -2.3451    0.3145 C.2       1 <0>         0.2306
     15 C5          3.5106   -0.1172    0.9654 C.2       1 <0>         0.2237
     16 C6          4.2484    1.1882    0.7839 C.3       1 <0>         0.0777
     17 C7         -3.8498   -1.7240    0.7986 C.3       1 <0>         0.1089
     18 C8          0.5762    2.6317   -0.2713 C.ar      1 <0>         0.0284
     19 C9          1.9958    2.2167   -0.4063 C.2       1 <0>         0.2200
     20 C10        -0.1472    3.0200   -1.3990 C.ar      1 <0>        -0.0504
     21 C11        -0.0341    2.6328    0.9831 C.ar      1 <0>        -0.0504
     22 C12        -1.4806    3.4095   -1.2725 C.ar      1 <0>        -0.0611
     23 C13        -1.3676    3.0222    1.1097 C.ar      1 <0>        -0.0611
     24 C14        -2.0907    3.4106   -0.0183 C.ar      1 <0>        -0.0617
     25 C15        -4.1089   -0.2996    0.3801 C.2       1 <0>         0.3221
     26 H1          2.9378   -2.6890    0.7974 H         1 <0>         0.0558
     27 H2          3.5742   -2.8912   -0.8596 H         1 <0>         0.0558
     28 H3         -0.8137   -2.7558   -1.6820 H         1 <0>         0.0558
     29 H4         -0.9759   -4.2009   -0.6353 H         1 <0>         0.0558
     30 H5          1.0828   -3.7824    0.3318 H         1 <0>         0.1492
     31 H6          4.1319   -0.6573   -0.9492 H         1 <0>         0.1492
     32 H7          5.0068    1.2652    1.5691 H         1 <0>         0.0475
     33 H8          4.7587    1.2453   -0.1817 H         1 <0>         0.0475
     34 H9         -3.1365   -2.8556   -0.8426 H         1 <0>         0.1493
     35 H10        -3.5357   -1.7273    1.8465 H         1 <0>         0.0577
     36 H11        -4.7728   -2.2978    0.6777 H         1 <0>         0.0577
     37 H12         0.3129    3.0281   -2.3836 H         1 <0>         0.0625
     38 H13         0.4818    2.3106    1.8826 H         1 <0>         0.0625
     39 H14        -2.0443    3.7111   -2.1505 H         1 <0>         0.0618
     40 H15        -1.8459    3.0156    2.0847 H         1 <0>         0.0618
     41 H16        -3.1300    3.7104    0.0798 H         1 <0>         0.0618
     42 H17        -3.5515    1.0264   -0.9304 H         1 <0>         0.2951
@<TRIPOS>BOND
     1    1   16 1
     2    1   19 1
     3    2   13 2
     4    3   14 2
     5    4   15 2
     6    5   19 2
     7    6   25 1
     8    6   42 1
     9    7   25 2
    10    8   12 1
    11    8   13 am
    12    8   30 1
    13    9   11 1
    14    9   15 am
    15    9   31 1
    16   10   14 am
    17   10   17 1
    18   10   34 1
    19   11   13 1
    20   11   26 1
    21   11   27 1
    22   12   14 1
    23   12   28 1
    24   12   29 1
    25   15   16 1
    26   16   32 1
    27   16   33 1
    28   17   25 1
    29   17   35 1
    30   17   36 1
    31   18   19 1
    32   18   20 ar
    33   18   21 ar
    34   20   22 ar
    35   20   37 1
    36   21   23 ar
    37   21   38 1
    38   22   24 ar
    39   22   39 1
    40   23   24 ar
    41   23   40 1
    42   24   41 1
