@<TRIPOS>MOLECULE
DB14020
   28    29     0     0     0
SMALL
USER_CHARGES

@<TRIPOS>ATOM
      1 O1          0.1726   -0.2667   -1.7950 O.3       1 <0>        -0.3793
      2 O2          0.0524    1.0421    1.3448 O.2       1 <0>        -0.2889
      3 C1          0.4906   -0.5298   -0.4316 C.3       1 <0>         0.1425
      4 C2          1.9557   -0.2422   -0.1940 C.ar      1 <0>        -0.0116
      5 C3         -0.4458    0.2937    0.4795 C.2       1 <0>         0.1958
      6 C4         -1.8901    0.2014    0.3382 C.ar      1 <0>         0.0204
      7 C5          2.5749    0.7626   -0.9182 C.ar      1 <0>        -0.0557
      8 C6          2.6492   -0.9900    0.7430 C.ar      1 <0>        -0.0557
      9 C7         -2.4730   -0.9843   -0.1086 C.ar      1 <0>        -0.0512
     10 C8         -2.6929    1.2988    0.6500 C.ar      1 <0>        -0.0512
     11 C9          3.9268    1.0276   -0.6989 C.ar      1 <0>        -0.0614
     12 C10         4.0011   -0.7248    0.9624 C.ar      1 <0>        -0.0614
     13 C11         4.6397    0.2841    0.2415 C.ar      1 <0>        -0.0617
     14 C12        -3.8585   -1.0728   -0.2437 C.ar      1 <0>        -0.0611
     15 C13        -4.0784    1.2103    0.5151 C.ar      1 <0>        -0.0611
     16 C14        -4.6613    0.0246    0.0683 C.ar      1 <0>        -0.0617
     17 H1          0.3224   -1.5972   -0.2471 H         1 <0>         0.0727
     18 H2          2.0373    1.3638   -1.6454 H         1 <0>         0.0621
     19 H3          2.1602   -1.7759    1.3113 H         1 <0>         0.0621
     20 H4         -1.8817   -1.8639   -0.3430 H         1 <0>         0.0625
     21 H5         -2.2572    2.2329    0.9954 H         1 <0>         0.0625
     22 H6          4.4236    1.8153   -1.2579 H         1 <0>         0.0618
     23 H7          4.5560   -1.3032    1.6952 H         1 <0>         0.0618
     24 H8          5.6920    0.4913    0.4129 H         1 <0>         0.0618
     25 H9         -0.6591   -0.7210   -2.0078 H         1 <0>         0.2108
     26 H10        -4.3131   -1.9972   -0.5877 H         1 <0>         0.0618
     27 H11        -4.7035    2.0650    0.7571 H         1 <0>         0.0618
     28 H12        -5.7401   -0.0446   -0.0360 H         1 <0>         0.0618
@<TRIPOS>BOND
     1    1    3 1
     2    1   25 1
     3    2    5 2
     4    3    4 1
     5    3    5 1
     6    3   17 1
     7    4    7 ar
     8    4    8 ar
     9    5    6 1
    10    6    9 ar
    11    6   10 ar
    12    7   11 ar
    13    7   18 1
    14    8   12 ar
    15    8   19 1
    16    9   14 ar
    17    9   20 1
    18   10   15 ar
    19   10   21 1
    20   11   13 ar
    21   11   22 1
    22   12   13 ar
    23   12   23 1
    24   13   24 1
    25   14   16 ar
    26   14   26 1
    27   15   16 ar
    28   15   27 1
    29   16   28 1
