@<TRIPOS>MOLECULE
DB14649
   62    65     0     0     0
SMALL
USER_CHARGES

@<TRIPOS>ATOM
      1 F1         -2.0813    0.2740   -1.5559 F         1 <0>        -0.2377
      2 O1          2.1956   -0.5271   -1.6865 O.3       1 <0>        -0.3801
      3 O2         -1.0898    2.1815    1.3248 O.3       1 <0>        -0.3886
      4 O3          3.9888   -0.3733    1.2378 O.2       1 <0>        -0.2907
      5 O4          5.1766    1.6111   -0.1298 O.3       1 <0>        -0.4570
      6 O5         -6.8505    0.8474   -2.4033 O.2       1 <0>        -0.2879
      7 O6          6.4186    0.0731   -1.3254 O.2       1 <0>        -0.2512
      8 C1          0.8756   -0.0221    0.3160 C.3       1 <0>         0.0096
      9 C2         -0.1410   -1.1285   -0.0408 C.3       1 <0>        -0.0263
     10 C3         -1.5648   -0.8355    0.4575 C.3       1 <0>         0.0003
     11 C4         -2.0693    0.5007   -0.1882 C.3       1 <0>         0.1526
     12 C5          2.1658   -0.6679   -0.2703 C.3       1 <0>         0.1351
     13 C6          0.5471   -2.4156    0.4135 C.3       1 <0>        -0.0436
     14 C7          0.3995    1.2777   -0.3650 C.3       1 <0>        -0.0151
     15 C8          2.0573   -2.1617    0.1617 C.3       1 <0>        -0.0071
     16 C9         -1.0512    1.6644    0.0039 C.3       1 <0>         0.0910
     17 C10        -3.5669    0.8186    0.2014 C.3       1 <0>         0.0443
     18 C11        -2.5035   -2.0077    0.1160 C.3       1 <0>        -0.0432
     19 C12         1.0377    0.1936    1.8464 C.3       1 <0>        -0.0562
     20 C13        -3.9523   -1.7148    0.4872 C.3       1 <0>        -0.0301
     21 C14        -4.4032   -0.4205   -0.1402 C.2       1 <0>        -0.0532
     22 C15         3.4339   -0.0166    0.1994 C.2       1 <0>         0.2024
     23 C16         2.6380   -3.1685   -0.8271 C.3       1 <0>        -0.0594
     24 C17        -3.7749    1.1354    1.7003 C.3       1 <0>        -0.0493
     25 C18        -4.0596    2.0407   -0.5606 C.2       1 <0>        -0.0674
     26 C19        -5.4516   -0.4055   -0.9783 C.2       1 <0>        -0.0148
     27 C20         3.9806    1.0932   -0.6729 C.3       1 <0>         0.1530
     28 C21        -5.1019    2.0619   -1.3969 C.2       1 <0>        -0.0180
     29 C22        -5.8813    0.8367   -1.6521 C.2       1 <0>         0.1787
     30 C23         6.3384    1.0079   -0.5400 C.2       1 <0>         0.3043
     31 C24         7.5196    1.6585    0.1136 C.3       1 <0>         0.0332
     32 H1         -0.2077   -1.1992   -1.1389 H         1 <0>         0.0311
     33 H2         -1.5536   -0.7348    1.5475 H         1 <0>         0.0336
     34 H3          0.3691   -2.5998    1.4794 H         1 <0>         0.0272
     35 H4          0.1711   -3.2856   -0.1354 H         1 <0>         0.0272
     36 H5          0.4125    1.1800   -1.4554 H         1 <0>         0.0297
     37 H6          1.0702    2.1027   -0.1006 H         1 <0>         0.0297
     38 H7          2.5687   -2.3284    1.1182 H         1 <0>         0.0330
     39 H8         -1.3176    2.4840   -0.6751 H         1 <0>         0.0626
     40 H9         -2.1831   -2.9119    0.6468 H         1 <0>         0.0272
     41 H10        -2.4423   -2.2344   -0.9568 H         1 <0>         0.0272
     42 H11         1.4877   -0.6663    2.3518 H         1 <0>         0.0236
     43 H12         1.6795    1.0590    2.0479 H         1 <0>         0.0236
     44 H13         0.0901    0.3750    2.3569 H         1 <0>         0.0236
     45 H14        -4.0582   -1.6563    1.5766 H         1 <0>         0.0310
     46 H15        -4.5777   -2.5559    0.1644 H         1 <0>         0.0310
     47 H16         2.1098   -3.1435   -1.7859 H         1 <0>         0.0233
     48 H17         3.6966   -2.9606   -1.0127 H         1 <0>         0.0233
     49 H18         2.5589   -4.1861   -0.4302 H         1 <0>         0.0233
     50 H19        -3.2468    0.4372    2.3562 H         1 <0>         0.0242
     51 H20        -3.4499    2.1458    1.9677 H         1 <0>         0.0242
     52 H21        -4.8385    1.0830    1.9693 H         1 <0>         0.0242
     53 H22         2.0834    0.3992   -1.9469 H         1 <0>         0.2108
     54 H23        -3.5385    2.9809   -0.3943 H         1 <0>         0.0583
     55 H24        -1.5573    3.0333    1.2945 H         1 <0>         0.2099
     56 H25        -6.0145   -1.3046   -1.2055 H         1 <0>         0.0656
     57 H26         3.2612    1.9150   -0.6976 H         1 <0>         0.0779
     58 H27         4.1545    0.7534   -1.6981 H         1 <0>         0.0779
     59 H28        -5.4055    2.9742   -1.8969 H         1 <0>         0.0653
     60 H29         7.4450    1.5550    1.1990 H         1 <0>         0.0342
     61 H30         7.5657    2.7126   -0.1707 H         1 <0>         0.0342
     62 H31         8.4370    1.1660   -0.2215 H         1 <0>         0.0342
@<TRIPOS>BOND
     1    1   11 1
     2    2   12 1
     3    2   53 1
     4    3   16 1
     5    3   55 1
     6    4   22 2
     7    5   27 1
     8    5   30 1
     9    6   29 2
    10    7   30 2
    11    8    9 1
    12    8   12 1
    13    8   14 1
    14    8   19 1
    15    9   10 1
    16    9   13 1
    17    9   32 1
    18   10   11 1
    19   10   18 1
    20   10   33 1
    21   11   16 1
    22   11   17 1
    23   12   15 1
    24   12   22 1
    25   13   15 1
    26   13   34 1
    27   13   35 1
    28   14   16 1
    29   14   36 1
    30   14   37 1
    31   15   23 1
    32   15   38 1
    33   16   39 1
    34   17   21 1
    35   17   24 1
    36   17   25 1
    37   18   20 1
    38   18   40 1
    39   18   41 1
    40   19   42 1
    41   19   43 1
    42   19   44 1
    43   20   21 1
    44   20   45 1
    45   20   46 1
    46   21   26 2
    47   22   27 1
    48   23   47 1
    49   23   48 1
    50   23   49 1
    51   24   50 1
    52   24   51 1
    53   24   52 1
    54   25   28 2
    55   25   54 1
    56   26   29 1
    57   26   56 1
    58   27   57 1
    59   27   58 1
    60   28   29 1
    61   28   59 1
    62   30   31 1
    63   31   60 1
    64   31   61 1
    65   31   62 1
