@<TRIPOS>MOLECULE
DB14159
   16    15     0     0     0
SMALL
USER_CHARGES

@<TRIPOS>ATOM
      1 P1          1.3678    0.2783    0.3503 P.3       1 <0>         0.3679
      2 P2         -1.7363   -0.2622   -0.2062 P.3       1 <0>         0.3679
      3 O1          0.1423   -1.9455    0.0791 O.3       1 <0>        -0.3700
      4 O2          2.6860   -0.4877   -0.1867 O.3       1 <0>        -0.3219
      5 O3          1.3914    1.6744   -0.4630 O.3       1 <0>        -0.3219
      6 O4         -1.8879   -0.0562    1.3893 O.3       1 <0>        -0.3219
      7 O5         -1.8769    1.2379   -0.7904 O.3       1 <0>        -0.3219
      8 O6          1.2646    0.4104    1.8404 O.2       1 <0>        -0.2555
      9 O7         -2.6619   -1.2726   -0.8149 O.2       1 <0>        -0.2555
     10 C1          0.0140   -0.6179   -0.4194 C.3       1 <0>         0.2570
     11 H1          0.2005   -0.6546   -1.4980 H         1 <0>         0.0852
     12 H2          1.0333   -2.2592   -0.1517 H         1 <0>         0.2113
     13 H3          3.5673   -0.1923    0.1262 H         1 <0>         0.2198
     14 H4          2.0361    2.3658   -0.2010 H         1 <0>         0.2198
     15 H5         -2.7767    0.1250    1.7625 H         1 <0>         0.2198
     16 H6         -2.7636    1.6564   -0.8164 H         1 <0>         0.2198
@<TRIPOS>BOND
     1    1    4 1
     2    1    5 1
     3    1    8 2
     4    1   10 1
     5    2    6 1
     6    2    7 1
     7    2    9 2
     8    2   10 1
     9    3   10 1
    10    3   12 1
    11    4   13 1
    12    5   14 1
    13    6   15 1
    14    7   16 1
    15   10   11 1
