@<TRIPOS>MOLECULE
DB14881
   57    60     0     0     0
SMALL
USER_CHARGES

@<TRIPOS>ATOM
      1 S1          5.8255   -2.3167   -1.2292 S.3       1 <0>        -0.0966
      2 O1         -3.7487   -1.6755   -0.6148 O.3       1 <0>        -0.3733
      3 O2          5.5077    0.9690    0.7817 O.3       1 <0>        -0.4943
      4 N1         -1.3662    1.3964   -1.7274 N.ar      1 <0>        -0.2593
      5 N2          2.6793   -0.8094   -0.1553 N.3       1 <0>        -0.3114
      6 C1         -3.6087   -0.8295    0.5329 C.3       1 <0>         0.0704
      7 C2         -1.1170   -0.4400   -0.1030 C.3       1 <0>         0.0187
      8 C3         -2.1463   -0.7993    1.0092 C.3       1 <0>        -0.0125
      9 C4         -4.5210   -1.4103    1.6258 C.3       1 <0>        -0.0237
     10 C5         -4.2609    0.5411    0.3119 C.3       1 <0>        -0.0237
     11 C6         -1.4287   -1.3871   -1.2939 C.3       1 <0>        -0.0182
     12 C7         -5.9317   -0.9807    1.2270 C.3       1 <0>        -0.0504
     13 C8         -5.7617    0.2584    0.3518 C.3       1 <0>        -0.0504
     14 C9          0.3048   -0.7869    0.4044 C.3       1 <0>        -0.0292
     15 C10        -2.8961   -1.3479   -1.7067 C.3       1 <0>         0.0492
     16 C11        -1.1057    1.0638   -0.4433 C.ar      1 <0>         0.0476
     17 C12         1.3532   -0.4583   -0.6492 C.3       1 <0>        -0.0029
     18 C13        -0.8367    1.9838    0.5572 C.ar      1 <0>        -0.0398
     19 C14        -0.8354    3.3322    0.2179 C.ar      1 <0>        -0.0586
     20 C15        -1.3561    2.7164   -2.0196 C.ar      1 <0>         0.0279
     21 C16         3.6971   -0.5347   -1.1598 C.3       1 <0>         0.0310
     22 C17        -1.0992    3.7138   -1.0928 C.ar      1 <0>        -0.0436
     23 C18         5.0774   -0.8820   -0.6689 C.2       1 <0>         0.0451
     24 C19         5.8811   -0.1891    0.2098 C.2       1 <0>         0.1315
     25 C20         7.1273   -0.8450    0.4257 C.2       1 <0>        -0.0126
     26 C21         7.2289   -2.0139   -0.2961 C.2       1 <0>        -0.0205
     27 C22         6.4333    1.5960    1.6806 C.3       1 <0>         0.0788
     28 H1         -1.9020   -1.8085    1.3727 H         1 <0>         0.0302
     29 H2         -2.0455   -0.1378    1.8781 H         1 <0>         0.0302
     30 H3         -3.9998    1.2291    1.1254 H         1 <0>         0.0293
     31 H4         -4.0000    1.0191   -0.6346 H         1 <0>         0.0293
     32 H5         -4.4544   -2.5011    1.6977 H         1 <0>         0.0293
     33 H6         -4.2769   -0.9841    2.6067 H         1 <0>         0.0293
     34 H7         -1.1897   -2.4199   -1.0059 H         1 <0>         0.0296
     35 H8         -0.8288   -1.1514   -2.1791 H         1 <0>         0.0296
     36 H9         -6.5459   -0.7743    2.1096 H         1 <0>         0.0266
     37 H10        -6.4307   -1.7740    0.6587 H         1 <0>         0.0266
     38 H11        -6.1384    0.0546   -0.6574 H         1 <0>         0.0266
     39 H12        -6.3190    1.1154    0.7432 H         1 <0>         0.0266
     40 H13         0.3598   -1.8562    0.6526 H         1 <0>         0.0286
     41 H14         0.5358   -0.2581    1.3385 H         1 <0>         0.0286
     42 H15        -3.1894   -0.3864   -2.1358 H         1 <0>         0.0560
     43 H16        -3.0696   -2.0982   -2.4858 H         1 <0>         0.0560
     44 H17         1.1708   -1.0200   -1.5699 H         1 <0>         0.0424
     45 H18         1.3525    0.6077   -0.8964 H         1 <0>         0.0424
     46 H19        -0.6351    1.6943    1.5821 H         1 <0>         0.0636
     47 H20         2.6982   -1.8003    0.0868 H         1 <0>         0.1223
     48 H21        -0.6304    4.0844    0.9736 H         1 <0>         0.0619
     49 H22        -1.5678    2.9612   -3.0551 H         1 <0>         0.0829
     50 H23         3.6900    0.5330   -1.4157 H         1 <0>         0.0480
     51 H24         3.4771   -1.0812   -2.0860 H         1 <0>         0.0480
     52 H25        -1.1038    4.7591   -1.3799 H         1 <0>         0.0633
     53 H26         7.9264   -0.5019    1.0700 H         1 <0>         0.0659
     54 H27         8.0599   -2.7045   -0.3200 H         1 <0>         0.0694
     55 H28         5.9677    2.5158    2.0469 H         1 <0>         0.0660
     56 H29         7.3576    1.8675    1.1605 H         1 <0>         0.0660
     57 H30         6.6358    0.9519    2.5423 H         1 <0>         0.0660
@<TRIPOS>BOND
     1    1   23 1
     2    1   26 1
     3    2    6 1
     4    2   15 1
     5    3   24 1
     6    3   27 1
     7    4   16 ar
     8    4   20 ar
     9    5   17 1
    10    5   21 1
    11    5   47 1
    12    6    8 1
    13    6    9 1
    14    6   10 1
    15    7    8 1
    16    7   11 1
    17    7   14 1
    18    7   16 1
    19    8   28 1
    20    8   29 1
    21    9   12 1
    22    9   32 1
    23    9   33 1
    24   10   13 1
    25   10   30 1
    26   10   31 1
    27   11   15 1
    28   11   34 1
    29   11   35 1
    30   12   13 1
    31   12   36 1
    32   12   37 1
    33   13   38 1
    34   13   39 1
    35   14   17 1
    36   14   40 1
    37   14   41 1
    38   15   42 1
    39   15   43 1
    40   16   18 ar
    41   17   44 1
    42   17   45 1
    43   18   19 ar
    44   18   46 1
    45   19   22 ar
    46   19   48 1
    47   20   22 ar
    48   20   49 1
    49   21   23 1
    50   21   50 1
    51   21   51 1
    52   22   52 1
    53   23   24 2
    54   24   25 1
    55   25   26 2
    56   25   53 1
    57   26   54 1
    58   27   55 1
    59   27   56 1
    60   27   57 1
