@<TRIPOS>MOLECULE
DB14184
   18    18     0     0     0
SMALL
USER_CHARGES

@<TRIPOS>ATOM
      1 O1          4.5846    0.7453   -0.2719 O.2       1 <0>        -0.2963
      2 C1         -0.1524   -0.2437    0.0726 C.ar      1 <0>        -0.0249
      3 C2         -0.6206    1.0685    0.1389 C.ar      1 <0>        -0.0546
      4 C3         -1.0543   -1.3007   -0.0496 C.ar      1 <0>        -0.0546
      5 C4         -1.9908    1.3238    0.0830 C.ar      1 <0>        -0.0612
      6 C5         -2.4245   -1.0454   -0.1057 C.ar      1 <0>        -0.0612
      7 C6          1.2765   -0.5099    0.1305 C.2       1 <0>        -0.0516
      8 C7         -2.8926    0.2669   -0.0394 C.ar      1 <0>        -0.0617
      9 C8          2.2507    0.3873   -0.1330 C.2       1 <0>        -0.0219
     10 C9          3.6643   -0.0304   -0.0431 C.2       1 <0>         0.1431
     11 H1          0.0435    1.9204    0.2528 H         1 <0>         0.0623
     12 H2         -0.7082   -2.3300   -0.1041 H         1 <0>         0.0623
     13 H3          1.5534   -1.5278    0.3983 H         1 <0>         0.0624
     14 H4         -2.3563    2.3451    0.1390 H         1 <0>         0.0618
     15 H5         -3.1270   -1.8682   -0.2009 H         1 <0>         0.0618
     16 H6         -3.9596    0.4655   -0.0820 H         1 <0>         0.0618
     17 H7          2.0670    1.4127   -0.4288 H         1 <0>         0.0650
     18 H8          3.8463   -1.0796    0.2432 H         1 <0>         0.1075
@<TRIPOS>BOND
     1    1   10 2
     2    2    3 ar
     3    2    4 ar
     4    2    7 1
     5    3    5 ar
     6    3   11 1
     7    4    6 ar
     8    4   12 1
     9    5    8 ar
    10    5   14 1
    11    6    8 ar
    12    6   15 1
    13    7    9 2
    14    7   13 1
    15    8   16 1
    16    9   10 1
    17    9   17 1
    18   10   18 1
