@<TRIPOS>MOLECULE
DB14914
   30    33     0     0     0
SMALL
USER_CHARGES

@<TRIPOS>ATOM
      1 F1         -6.8091    0.2463    0.1908 F         1 <0>        -0.1839
      2 N1          1.9307    1.4785    0.2098 N.pl3     1 <0>        -0.3540
      3 N2          5.2317   -0.9324   -0.1439 N.ar      1 <0>        -0.2625
      4 N3         -4.9379   -1.0402    0.5719 N.ar      1 <0>        -0.2270
      5 C1          1.4550   -0.6817   -0.0752 C.2       1 <0>         0.0089
      6 C2          0.8927    0.5832    0.0998 C.2       1 <0>         0.0481
      7 C3          2.8764   -0.5212   -0.0672 C.ar      1 <0>         0.0255
      8 C4          3.1419    0.8354    0.1123 C.ar      1 <0>         0.0504
      9 C5         -0.4898    0.7978    0.1421 C.2       1 <0>        -0.0300
     10 C6         -1.3228   -0.3153    0.0009 C.2       1 <0>        -0.0145
     11 C7          0.5930   -1.7896   -0.2157 C.2       1 <0>        -0.0514
     12 C8         -0.7917   -1.5908   -0.1754 C.2       1 <0>        -0.0533
     13 C9          3.9604   -1.3977   -0.1952 C.ar      1 <0>         0.0373
     14 C10         4.4364    1.3438    0.1686 C.ar      1 <0>        -0.0196
     15 C11        -2.7593   -0.1382    0.0380 C.ar      1 <0>         0.0005
     16 C12         5.4349    0.3928    0.0322 C.ar      1 <0>         0.0295
     17 C13        -3.3476    1.0437   -0.3987 C.ar      1 <0>        -0.0483
     18 C14        -3.5910   -1.1406    0.5102 C.ar      1 <0>         0.0383
     19 C15        -4.7301    1.1847   -0.3507 C.ar      1 <0>        -0.0067
     20 C16        -5.4737    0.1230    0.1387 C.ar      1 <0>         0.2132
     21 H1          1.8182    2.4738    0.3444 H         1 <0>         0.1659
     22 H2         -0.8643    1.8024    0.3082 H         1 <0>         0.0644
     23 H3          0.9928   -2.7894   -0.3603 H         1 <0>         0.0624
     24 H4         -1.4192   -2.4673   -0.3166 H         1 <0>         0.0624
     25 H5          3.8467   -2.4658   -0.3376 H         1 <0>         0.0836
     26 H6          4.6475    2.3960    0.3079 H         1 <0>         0.0653
     27 H7          6.4789    0.6908    0.0629 H         1 <0>         0.0830
     28 H8         -2.7706    1.8676   -0.8090 H         1 <0>         0.0625
     29 H9         -3.2192   -2.0837    0.8982 H         1 <0>         0.0837
     30 H10        -5.2109    2.0944   -0.6914 H         1 <0>         0.0662
@<TRIPOS>BOND
     1    1   20 1
     2    2    6 1
     3    2    8 2
     4    2   21 1
     5    3   13 ar
     6    3   16 ar
     7    4   18 ar
     8    4   20 ar
     9    5    6 1
    10    5    7 2
    11    5   11 2
    12    6    9 2
    13    7    8 ar
    14    7   13 ar
    15    8   14 ar
    16    9   10 1
    17    9   22 1
    18   10   12 2
    19   10   15 1
    20   11   12 1
    21   11   23 1
    22   12   24 1
    23   13   25 1
    24   14   16 ar
    25   14   26 1
    26   15   17 ar
    27   15   18 ar
    28   16   27 1
    29   17   19 ar
    30   17   28 1
    31   18   29 1
    32   19   20 ar
    33   19   30 1
