@<TRIPOS>MOLECULE
DB14189
   12    11     0     0     0
SMALL
USER_CHARGES

@<TRIPOS>ATOM
      1 N1          1.8327    0.3445    0.1425 N.3       1 <0>        -0.3288
      2 N2         -1.8327   -0.3445    0.1424 N.3       1 <0>        -0.3288
      3 C1          0.6124   -0.4548    0.1514 C.3       1 <0>         0.0054
      4 C2         -0.6124    0.4550    0.1515 C.3       1 <0>         0.0054
      5 H1          0.6057   -1.1086   -0.7284 H         1 <0>         0.0434
      6 H2          0.6118   -1.0943    1.0412 H         1 <0>         0.0434
      7 H3         -0.6118    1.0942    1.0414 H         1 <0>         0.0434
      8 H4         -0.6058    1.1087   -0.7284 H         1 <0>         0.0434
      9 H5          1.8601    0.9203   -0.6982 H         1 <0>         0.1183
     10 H6          2.6412   -0.2740    0.0915 H         1 <0>         0.1183
     11 H7         -1.8600   -0.9202   -0.6982 H         1 <0>         0.1183
     12 H8         -2.6412    0.2738    0.0914 H         1 <0>         0.1183
@<TRIPOS>BOND
     1    1    3 1
     2    1    9 1
     3    1   10 1
     4    2    4 1
     5    2   11 1
     6    2   12 1
     7    3    4 1
     8    3    5 1
     9    3    6 1
    10    4    7 1
    11    4    8 1
