@<TRIPOS>MOLECULE
DB14655
   62    65     0     0     0
SMALL
USER_CHARGES

@<TRIPOS>ATOM
      1 O1          4.2313   -0.6339   -0.0257 O.3       1 <0>        -0.4608
      2 O2         -6.5958    0.0876    1.1163 O.2       1 <0>        -0.2971
      3 O3          5.7348    0.3592    1.4155 O.2       1 <0>        -0.2509
      4 C1         -1.1613   -0.1739    0.2534 C.3       1 <0>        -0.0322
      5 C2         -0.3956    1.1308   -0.1426 C.3       1 <0>        -0.0342
      6 C3          1.0286    1.0507    0.4173 C.3       1 <0>        -0.0291
      7 C4          1.8141   -0.1588   -0.1263 C.3       1 <0>         0.0081
      8 C5         -2.6573   -0.1524   -0.2414 C.3       1 <0>        -0.0251
      9 C6         -3.3243    1.1371    0.3372 C.3       1 <0>        -0.0287
     10 C7         -0.3734   -1.4530   -0.1389 C.3       1 <0>        -0.0488
     11 C8          1.0948   -1.4359    0.3253 C.3       1 <0>        -0.0437
     12 C9         -1.1277    2.3798    0.3663 C.3       1 <0>        -0.0494
     13 C10         3.1699    0.0947    0.5603 C.3       1 <0>         0.1087
     14 C11         1.9820    2.2225    0.1970 C.3       1 <0>        -0.0460
     15 C12        -2.5876    2.4161   -0.0763 C.3       1 <0>        -0.0491
     16 C13        -3.4356   -1.3725    0.3344 C.3       1 <0>        -0.0378
     17 C14         3.3781    1.6157    0.4264 C.3       1 <0>        -0.0149
     18 C15         1.9859   -0.1797   -1.6668 C.3       1 <0>        -0.0559
     19 C16        -4.8165    1.2380    0.0147 C.3       1 <0>         0.0094
     20 C17        -2.7264   -0.2020   -1.7881 C.3       1 <0>        -0.0590
     21 C18        -4.9487   -1.3400    0.0647 C.3       1 <0>         0.0152
     22 C19        -5.5375   -0.0022    0.4942 C.2       1 <0>         0.1365
     23 C20        -5.6378   -2.5050    0.7732 C.3       1 <0>        -0.0557
     24 C21         5.4810   -0.4094    0.4982 C.2       1 <0>         0.3071
     25 C22         6.4943   -1.2586   -0.2325 C.3       1 <0>         0.0421
     26 C23         7.9042   -1.0416    0.2888 C.3       1 <0>        -0.0552
     27 H1         -1.2005   -0.1856    1.3544 H         1 <0>         0.0309
     28 H2         -0.3412    1.2098   -1.2332 H         1 <0>         0.0306
     29 H3          0.9325    0.9401    1.5106 H         1 <0>         0.0310
     30 H4         -3.2514    1.0724    1.4346 H         1 <0>         0.0310
     31 H5         -0.4024   -1.6024   -1.2224 H         1 <0>         0.0268
     32 H6         -0.8486   -2.3342    0.3060 H         1 <0>         0.0268
     33 H7          1.1135   -1.5113    1.4204 H         1 <0>         0.0272
     34 H8          1.6117   -2.3259   -0.0533 H         1 <0>         0.0272
     35 H9         -0.6265    3.2846    0.0032 H         1 <0>         0.0268
     36 H10        -1.0847    2.4148    1.4625 H         1 <0>         0.0268
     37 H11         3.1017   -0.1754    1.6237 H         1 <0>         0.0739
     38 H12         1.7864    3.0464    0.8909 H         1 <0>         0.0269
     39 H13         1.9008    2.6199   -0.8209 H         1 <0>         0.0269
     40 H14        -3.0710    3.2880    0.3815 H         1 <0>         0.0268
     41 H15        -2.6458    2.5641   -1.1608 H         1 <0>         0.0268
     42 H16        -3.2681   -1.4178    1.4196 H         1 <0>         0.0277
     43 H17        -3.0349   -2.3052   -0.0810 H         1 <0>         0.0277
     44 H18         4.0493    1.8792   -0.3989 H         1 <0>         0.0301
     45 H19         3.8140    2.0273    1.3435 H         1 <0>         0.0301
     46 H20         2.5386    0.6893   -2.0374 H         1 <0>         0.0236
     47 H21         2.5420   -1.0711   -1.9800 H         1 <0>         0.0236
     48 H22         1.0315   -0.1987   -2.1994 H         1 <0>         0.0236
     49 H23        -5.0075    1.3662   -1.0549 H         1 <0>         0.0344
     50 H24        -5.2487    2.1039    0.5303 H         1 <0>         0.0344
     51 H25        -2.1381    0.5882   -2.2612 H         1 <0>         0.0235
     52 H26        -2.3561   -1.1587   -2.1710 H         1 <0>         0.0235
     53 H27        -3.7474   -0.0950   -2.1646 H         1 <0>         0.0235
     54 H28        -5.1408   -1.4420   -1.0096 H         1 <0>         0.0375
     55 H29        -6.7098   -2.5203    0.5476 H         1 <0>         0.0236
     56 H30        -5.2146   -3.4626    0.4525 H         1 <0>         0.0236
     57 H31        -5.5305   -2.4299    1.8610 H         1 <0>         0.0236
     58 H32         6.2182   -2.3107   -0.1075 H         1 <0>         0.0375
     59 H33         6.4577   -1.0016   -1.2965 H         1 <0>         0.0375
     60 H34         7.9737   -1.2957    1.3517 H         1 <0>         0.0235
     61 H35         8.6142   -1.6677   -0.2600 H         1 <0>         0.0235
     62 H36         8.2092    0.0039    0.1740 H         1 <0>         0.0235
@<TRIPOS>BOND
     1    1   13 1
     2    1   24 1
     3    2   22 2
     4    3   24 2
     5    4    5 1
     6    4    8 1
     7    4   10 1
     8    4   27 1
     9    5    6 1
    10    5   12 1
    11    5   28 1
    12    6    7 1
    13    6   14 1
    14    6   29 1
    15    7   11 1
    16    7   13 1
    17    7   18 1
    18    8    9 1
    19    8   16 1
    20    8   20 1
    21    9   15 1
    22    9   19 1
    23    9   30 1
    24   10   11 1
    25   10   31 1
    26   10   32 1
    27   11   33 1
    28   11   34 1
    29   12   15 1
    30   12   35 1
    31   12   36 1
    32   13   17 1
    33   13   37 1
    34   14   17 1
    35   14   38 1
    36   14   39 1
    37   15   40 1
    38   15   41 1
    39   16   21 1
    40   16   42 1
    41   16   43 1
    42   17   44 1
    43   17   45 1
    44   18   46 1
    45   18   47 1
    46   18   48 1
    47   19   22 1
    48   19   49 1
    49   19   50 1
    50   20   51 1
    51   20   52 1
    52   20   53 1
    53   21   22 1
    54   21   23 1
    55   21   54 1
    56   23   55 1
    57   23   56 1
    58   23   57 1
    59   24   25 1
    60   25   26 1
    61   25   58 1
    62   25   59 1
    63   26   60 1
    64   26   61 1
    65   26   62 1
