@<TRIPOS>MOLECULE
DB14188
   24    24     0     0     0
SMALL
USER_CHARGES

@<TRIPOS>ATOM
      1 O1         -2.3540   -1.3531   -0.8205 O.3       1 <0>        -0.4914
      2 O2         -3.5886    1.0718   -0.2525 O.3       1 <0>        -0.5033
      3 C1          0.5499    0.7587   -0.1343 C.ar      1 <0>        -0.0216
      4 C2         -1.6118   -0.2563   -0.5010 C.ar      1 <0>         0.1618
      5 C3         -0.2212   -0.3572   -0.4600 C.ar      1 <0>        -0.0092
      6 C4         -0.0699    1.9755    0.1505 C.ar      1 <0>        -0.0509
      7 C5         -2.2313    0.9606   -0.2162 C.ar      1 <0>         0.1585
      8 C6         -1.4604    2.0765    0.1094 C.ar      1 <0>        -0.0160
      9 C7          1.9998    0.6535   -0.0916 C.2       1 <0>        -0.0587
     10 C8          2.7081   -0.4917    0.0340 C.2       1 <0>        -0.0865
     11 C9          4.2005   -0.5511    0.0826 C.3       1 <0>        -0.0465
     12 C10        -2.7664   -2.1925    0.2562 C.3       1 <0>         0.0790
     13 H1          0.2254   -1.3161   -0.7081 H         1 <0>         0.0661
     14 H2          0.5145    2.8557    0.4077 H         1 <0>         0.0625
     15 H3         -1.9303    3.0303    0.3337 H         1 <0>         0.0655
     16 H4          2.5451    1.5929   -0.1573 H         1 <0>         0.0620
     17 H5          2.2121   -1.4527    0.1306 H         1 <0>         0.0569
     18 H6          4.5254   -0.9951    1.0285 H         1 <0>         0.0272
     19 H7          4.5752   -1.1727   -0.7365 H         1 <0>         0.0272
     20 H8          4.6572    0.4397   -0.0044 H         1 <0>         0.0272
     21 H9         -3.3918   -1.6362    0.9614 H         1 <0>         0.0660
     22 H10        -1.8957   -2.6085    0.7730 H         1 <0>         0.0660
     23 H11        -3.3542   -3.0166   -0.1576 H         1 <0>         0.0660
     24 H12        -3.8377    1.9846   -0.0277 H         1 <0>         0.2923
@<TRIPOS>BOND
     1    1    4 1
     2    1   12 1
     3    2    7 1
     4    2   24 1
     5    3    5 ar
     6    3    6 ar
     7    3    9 1
     8    4    5 ar
     9    4    7 ar
    10    5   13 1
    11    6    8 ar
    12    6   14 1
    13    7    8 ar
    14    8   15 1
    15    9   10 2
    16    9   16 1
    17   10   11 1
    18   10   17 1
    19   11   18 1
    20   11   19 1
    21   11   20 1
    22   12   21 1
    23   12   22 1
    24   12   23 1
