@<TRIPOS>MOLECULE
DB14539
   61    64     0     0     0
SMALL
USER_CHARGES

@<TRIPOS>ATOM
      1 O1         -2.5076   -1.0540    1.8628 O.3       1 <0>        -0.3804
      2 O2          0.4597    1.5937   -1.5122 O.3       1 <0>        -0.3915
      3 O3         -4.4938   -1.7951   -0.6260 O.2       1 <0>        -0.2907
      4 O4         -5.5212    0.6461    0.1392 O.3       1 <0>        -0.4570
      5 O5          6.6847    1.5683    1.8100 O.2       1 <0>        -0.2927
      6 O6         -5.2862    2.9403    0.2766 O.2       1 <0>        -0.2512
      7 C1         -1.2159   -0.6587   -0.1916 C.3       1 <0>         0.0092
      8 C2         -0.0738   -1.5683    0.3112 C.3       1 <0>        -0.0292
      9 C3          1.3092   -1.1743   -0.2290 C.3       1 <0>        -0.0314
     10 C4          1.6280    0.2886    0.2208 C.3       1 <0>        -0.0028
     11 C5         -2.4238   -1.3715    0.4767 C.3       1 <0>         0.1326
     12 C6         -0.9181    0.7724    0.3010 C.3       1 <0>        -0.0179
     13 C7          3.0825    0.7578   -0.1935 C.3       1 <0>        -0.0049
     14 C8          0.4761    1.2827   -0.1262 C.3       1 <0>         0.0597
     15 C9         -0.5975   -2.9763    0.0406 C.3       1 <0>        -0.0463
     16 C10        -2.1124   -2.8773    0.3163 C.3       1 <0>        -0.0161
     17 C11         2.3827   -2.1405    0.2964 C.3       1 <0>        -0.0459
     18 C12        -1.3861   -0.6848   -1.7359 C.3       1 <0>        -0.0562
     19 C13         4.0982   -0.3090    0.2376 C.2       1 <0>        -0.0600
     20 C14         3.7785   -1.7322   -0.1495 C.3       1 <0>        -0.0305
     21 C15         3.3810    2.1011    0.5342 C.3       1 <0>        -0.0366
     22 C16         3.2561    0.9626   -1.7155 C.3       1 <0>        -0.0555
     23 C17        -3.7532   -0.9712   -0.0914 C.2       1 <0>         0.2022
     24 C18         4.8562    2.4683    0.5524 C.3       1 <0>         0.0107
     25 C19         5.2413   -0.0411    0.8906 C.2       1 <0>        -0.0194
     26 C20         5.6620    1.3524    1.1632 C.2       1 <0>         0.1561
     27 C21        -4.1219    0.4919    0.0320 C.3       1 <0>         0.1530
     28 C22        -5.9809    1.9332    0.2572 C.2       1 <0>         0.3043
     29 C23        -7.4759    1.9428    0.3607 C.3       1 <0>         0.0332
     30 H1         -0.0123   -1.4750    1.4083 H         1 <0>         0.0310
     31 H2          1.3133   -1.2358   -1.3219 H         1 <0>         0.0307
     32 H3          1.6334    0.2496    1.3234 H         1 <0>         0.0337
     33 H4         -0.9633    0.8124    1.3960 H         1 <0>         0.0297
     34 H5         -1.6685    1.4728   -0.0764 H         1 <0>         0.0297
     35 H6          0.6533    2.2268    0.4011 H         1 <0>         0.0596
     36 H7         -0.1273   -3.7218    0.6900 H         1 <0>         0.0269
     37 H8         -0.4152   -3.2785   -0.9969 H         1 <0>         0.0269
     38 H9         -2.6470   -3.3486   -0.5154 H         1 <0>         0.0297
     39 H10        -2.3605   -3.4377    1.2250 H         1 <0>         0.0297
     40 H11         2.1833   -3.1561   -0.0648 H         1 <0>         0.0271
     41 H12         2.3472   -2.1820    1.3931 H         1 <0>         0.0271
     42 H13        -1.7782   -1.6412   -2.0981 H         1 <0>         0.0236
     43 H14        -2.0802    0.0915   -2.0728 H         1 <0>         0.0236
     44 H15        -0.4492   -0.5215   -2.2719 H         1 <0>         0.0236
     45 H16         3.8611   -1.8341   -1.2386 H         1 <0>         0.0310
     46 H17         4.5040   -2.4345    0.2793 H         1 <0>         0.0310
     47 H18         3.0362    2.0378    1.5759 H         1 <0>         0.0278
     48 H19         2.8210    2.9235    0.0728 H         1 <0>         0.0278
     49 H20         2.8282    0.1395   -2.2961 H         1 <0>         0.0238
     50 H21         2.7910    1.8916   -2.0591 H         1 <0>         0.0238
     51 H22         4.3151    1.0308   -1.9941 H         1 <0>         0.0238
     52 H23        -3.1786   -1.6301    2.2673 H         1 <0>         0.2108
     53 H24         4.9949    3.3702    1.1588 H         1 <0>         0.0345
     54 H25         5.2387    2.6708   -0.4529 H         1 <0>         0.0345
     55 H26        -0.2364    2.2561   -1.6603 H         1 <0>         0.2098
     56 H27         5.9296   -0.8252    1.1878 H         1 <0>         0.0652
     57 H28        -3.7667    1.0162   -0.8595 H         1 <0>         0.0779
     58 H29        -3.6671    0.9171    0.9311 H         1 <0>         0.0779
     59 H30        -7.7888    1.3859    1.2473 H         1 <0>         0.0342
     60 H31        -7.9120    1.5072   -0.5417 H         1 <0>         0.0342
     61 H32        -7.8267    2.9746    0.4549 H         1 <0>         0.0342
@<TRIPOS>BOND
     1    1   11 1
     2    1   52 1
     3    2   14 1
     4    2   55 1
     5    3   23 2
     6    4   27 1
     7    4   28 1
     8    5   26 2
     9    6   28 2
    10    7    8 1
    11    7   11 1
    12    7   12 1
    13    7   18 1
    14    8    9 1
    15    8   15 1
    16    8   30 1
    17    9   10 1
    18    9   17 1
    19    9   31 1
    20   10   13 1
    21   10   14 1
    22   10   32 1
    23   11   16 1
    24   11   23 1
    25   12   14 1
    26   12   33 1
    27   12   34 1
    28   13   19 1
    29   13   21 1
    30   13   22 1
    31   14   35 1
    32   15   16 1
    33   15   36 1
    34   15   37 1
    35   16   38 1
    36   16   39 1
    37   17   20 1
    38   17   40 1
    39   17   41 1
    40   18   42 1
    41   18   43 1
    42   18   44 1
    43   19   20 1
    44   19   25 2
    45   20   45 1
    46   20   46 1
    47   21   24 1
    48   21   47 1
    49   21   48 1
    50   22   49 1
    51   22   50 1
    52   22   51 1
    53   23   27 1
    54   24   26 1
    55   24   53 1
    56   24   54 1
    57   25   26 1
    58   25   56 1
    59   27   57 1
    60   27   58 1
    61   28   29 1
    62   29   59 1
    63   29   60 1
    64   29   61 1
