@<TRIPOS>MOLECULE
DB14075
   43    44     0     0     0
SMALL
USER_CHARGES

@<TRIPOS>ATOM
      1 O1         -2.0441   -2.1380   -0.7491 O.2       1 <0>        -0.2715
      2 O2          4.8080    1.9012   -1.7440 O.2       1 <0>        -0.2715
      3 O3         -6.7274    0.5829   -1.1460 O.3       1 <0>        -0.3768
      4 O4          3.4275   -2.8987   -0.0798 O.3       1 <0>        -0.3768
      5 O5         -6.3706   -2.4366    0.7382 O.2       1 <0>        -0.2521
      6 O6          7.0472   -1.3658    0.5654 O.2       1 <0>        -0.2521
      7 O7         -1.4558    1.1208   -1.3740 O.2       1 <0>        -0.2528
      8 O8          1.5252    1.2639   -1.3839 O.2       1 <0>        -0.2528
      9 N1         -5.0814   -0.6163   -0.0111 N.am      1 <0>        -0.2352
     10 N2          4.7564   -0.9997    0.1711 N.am      1 <0>        -0.2352
     11 N3         -2.9106    0.4521    0.3057 N.am      1 <0>        -0.2731
     12 N4          3.0476    0.7381    0.2856 N.am      1 <0>        -0.2731
     13 N5         -4.1712   -2.6495    0.0267 N.am      1 <0>        -0.2370
     14 N6          6.2463    0.4160   -0.6887 N.am      1 <0>        -0.2370
     15 N7         -1.1963    1.9019    0.7971 N.am      1 <0>        -0.2838
     16 N8          1.2056    2.0171    0.7891 N.am      1 <0>        -0.2838
     17 C1         -3.7397   -0.4041   -0.5101 C.3       1 <0>         0.1745
     18 C2          3.9462   -0.0342   -0.5399 C.3       1 <0>         0.1745
     19 C3         -3.1856   -1.8180   -0.4485 C.2       1 <0>         0.2594
     20 C4          5.0201    0.8920   -1.0863 C.2       1 <0>         0.2594
     21 C5         -5.3317   -1.9569    0.3042 C.2       1 <0>         0.3120
     22 C6          6.1258   -0.7261    0.0758 C.2       1 <0>         0.3120
     23 C7         -6.0433    0.4623    0.0861 C.3       1 <0>         0.1162
     24 C8          4.1737   -2.1383    0.8507 C.3       1 <0>         0.1162
     25 C9         -1.8198    1.1550   -0.1995 C.2       1 <0>         0.3025
     26 C10         1.8911    1.3333   -0.2116 C.2       1 <0>         0.3025
     27 C11        -0.0332    2.7326    0.5609 C.3       1 <0>         0.0808
     28 H1         -3.7752   -0.0648   -1.5501 H         1 <0>         0.0811
     29 H2          3.4221   -0.5178   -1.3704 H         1 <0>         0.0811
     30 H3         -3.1182    0.5164    1.2972 H         1 <0>         0.1525
     31 H4          3.2909    0.8769    1.2613 H         1 <0>         0.1525
     32 H5         -4.0574   -3.6471    0.1651 H         1 <0>         0.1592
     33 H6          7.1303    0.8545   -0.9205 H         1 <0>         0.1592
     34 H7         -5.5435    1.4025    0.3345 H         1 <0>         0.0770
     35 H8         -6.7787    0.2226    0.8592 H         1 <0>         0.0770
     36 H9          3.5086   -1.7810    1.6417 H         1 <0>         0.0770
     37 H10         4.9551   -2.7648    1.2897 H         1 <0>         0.0770
     38 H11        -0.0711    3.5696    1.2636 H         1 <0>         0.0671
     39 H12        -0.0549    3.1147   -0.4643 H         1 <0>         0.0671
     40 H13        -1.5542    1.8409    1.7451 H         1 <0>         0.1518
     41 H14         1.5729    1.9895    1.7351 H         1 <0>         0.1518
     42 H15        -6.0521    0.6776   -1.8384 H         1 <0>         0.2115
     43 H16         4.0155   -3.0766   -0.8331 H         1 <0>         0.2115
@<TRIPOS>BOND
     1    1   19 2
     2    2   20 2
     3    3   23 1
     4    3   42 1
     5    4   24 1
     6    4   43 1
     7    5   21 2
     8    6   22 2
     9    7   25 2
    10    8   26 2
    11    9   17 1
    12    9   21 am
    13    9   23 1
    14   10   18 1
    15   10   22 am
    16   10   24 1
    17   11   17 1
    18   11   25 am
    19   11   30 1
    20   12   18 1
    21   12   26 am
    22   12   31 1
    23   13   19 am
    24   13   21 am
    25   13   32 1
    26   14   20 am
    27   14   22 am
    28   14   33 1
    29   15   25 am
    30   15   27 1
    31   15   40 1
    32   16   26 am
    33   16   27 1
    34   16   41 1
    35   17   19 1
    36   17   28 1
    37   18   20 1
    38   18   29 1
    39   23   34 1
    40   23   35 1
    41   24   36 1
    42   24   37 1
    43   27   38 1
    44   27   39 1
