@<TRIPOS>MOLECULE
DB14643
   70    73     0     0     0
SMALL
USER_CHARGES

@<TRIPOS>ATOM
      1 O1         -2.2700    1.1065   -0.4897 O.3       1 <0>        -0.4497
      2 O2          1.1008   -2.7526    0.5181 O.3       1 <0>        -0.3914
      3 O3         -3.8788    0.3313    2.2347 O.2       1 <0>        -0.2895
      4 O4         -5.0722   -1.3755    0.4283 O.3       1 <0>        -0.4570
      5 O5          6.2023   -0.2830   -3.5723 O.2       1 <0>        -0.2879
      6 O6         -4.0186    2.3700    0.3286 O.2       1 <0>        -0.2508
      7 O7         -4.9291   -3.2375   -0.9319 O.2       1 <0>        -0.2512
      8 C1         -0.7107   -0.2501    0.8435 C.3       1 <0>         0.0204
      9 C2          0.3701    0.8502    0.7579 C.3       1 <0>        -0.0281
     10 C3          1.8060    0.3060    0.8124 C.3       1 <0>        -0.0308
     11 C4          2.0242   -0.6618   -0.4001 C.3       1 <0>         0.0007
     12 C5         -1.9826    0.6415    0.8261 C.3       1 <0>         0.1796
     13 C6         -0.5189   -1.1817   -0.3697 C.3       1 <0>        -0.0168
     14 C7          0.9116   -1.7558   -0.4763 C.3       1 <0>         0.0600
     15 C8         -0.0757    1.8659    1.8067 C.3       1 <0>        -0.0453
     16 C9          3.5144   -1.1794   -0.4879 C.3       1 <0>         0.0133
     17 C10        -1.6162    1.8434    1.7261 C.3       1 <0>        -0.0048
     18 C11         2.8207    1.4630    0.7926 C.3       1 <0>        -0.0432
     19 C12         4.2732    0.9720    0.7299 C.3       1 <0>        -0.0212
     20 C13        -0.6606   -1.0580    2.1701 C.3       1 <0>        -0.0551
     21 C14         4.4360    0.0574   -0.4813 C.2       1 <0>        -0.0531
     22 C15        -3.2392   -0.0533    1.2569 C.2       1 <0>         0.2142
     23 C16         3.9298   -2.1048    0.6793 C.3       1 <0>        -0.0520
     24 C17         3.6931   -2.0052   -1.7543 C.2       1 <0>        -0.0701
     25 C18         5.2173    2.1803    0.8031 C.3       1 <0>        -0.0587
     26 C19         5.2910    0.3249   -1.4841 C.2       1 <0>        -0.0146
     27 C20        -3.6666   -1.2433    0.4244 C.3       1 <0>         0.1542
     28 C21         4.5435   -1.7310   -2.7467 C.2       1 <0>        -0.0180
     29 C22         5.4096   -0.5442   -2.6735 C.2       1 <0>         0.1787
     30 C23        -3.3234    1.9742   -0.5969 C.2       1 <0>         0.3078
     31 C24        -3.4937    2.3694   -2.0451 C.3       1 <0>         0.0421
     32 C25        -4.6608    3.3204   -2.2447 C.3       1 <0>        -0.0552
     33 C26        -5.5835   -2.4232   -0.2950 C.2       1 <0>         0.3043
     34 C27        -7.0790   -2.4388   -0.1995 C.3       1 <0>         0.0332
     35 H1          0.2730    1.3595   -0.2155 H         1 <0>         0.0310
     36 H2          1.9616   -0.2332    1.7511 H         1 <0>         0.0308
     37 H3          1.8663   -0.0456   -1.3020 H         1 <0>         0.0340
     38 H4         -0.7287   -0.6400   -1.3001 H         1 <0>         0.0297
     39 H5         -1.2187   -2.0215   -0.3213 H         1 <0>         0.0297
     40 H6          0.9717   -2.2709   -1.4407 H         1 <0>         0.0596
     41 H7          0.3178    2.8667    1.6015 H         1 <0>         0.0270
     42 H8          0.2583    1.5762    2.8096 H         1 <0>         0.0270
     43 H9         -2.0099    1.7590    2.7450 H         1 <0>         0.0308
     44 H10        -1.9348    2.8152    1.3385 H         1 <0>         0.0308
     45 H11         2.6892    2.0744    1.6941 H         1 <0>         0.0274
     46 H12         2.6153    2.1198   -0.0640 H         1 <0>         0.0274
     47 H13         4.4805    0.3803    1.6303 H         1 <0>         0.0343
     48 H14        -1.2255   -1.9923    2.0860 H         1 <0>         0.0237
     49 H15         0.3460   -1.3138    2.4975 H         1 <0>         0.0237
     50 H16        -1.0986   -0.5030    3.0074 H         1 <0>         0.0237
     51 H17         3.5135   -3.1138    0.5843 H         1 <0>         0.0241
     52 H18         5.0203   -2.2323    0.7077 H         1 <0>         0.0241
     53 H19         3.6315   -1.7169    1.6574 H         1 <0>         0.0241
     54 H20         3.0975   -2.9103   -1.8523 H         1 <0>         0.0582
     55 H21         1.4827   -2.3491    1.3109 H         1 <0>         0.2098
     56 H22         5.0508    2.7405    1.7302 H         1 <0>         0.0235
     57 H23         6.2657    1.8633    0.7996 H         1 <0>         0.0235
     58 H24         5.0591    2.8716   -0.0321 H         1 <0>         0.0235
     59 H25         5.9321    1.1987   -1.4862 H         1 <0>         0.0656
     60 H26        -3.2144   -2.1421    0.8542 H         1 <0>         0.0780
     61 H27        -3.3415   -1.1152   -0.6118 H         1 <0>         0.0780
     62 H28         4.6245   -2.3734   -3.6156 H         1 <0>         0.0653
     63 H29        -2.5700    2.8510   -2.3830 H         1 <0>         0.0375
     64 H30        -3.6616    1.4612   -2.6335 H         1 <0>         0.0375
     65 H31        -4.5191    4.2424   -1.6710 H         1 <0>         0.0235
     66 H32        -4.7594    3.5865   -3.3016 H         1 <0>         0.0235
     67 H33        -5.6005    2.8635   -1.9171 H         1 <0>         0.0235
     68 H34        -7.3817   -2.5663    0.8427 H         1 <0>         0.0342
     69 H35        -7.4714   -3.2770   -0.7821 H         1 <0>         0.0342
     70 H36        -7.4853   -1.5100   -0.6078 H         1 <0>         0.0342
@<TRIPOS>BOND
     1    1   12 1
     2    1   30 1
     3    2   14 1
     4    2   55 1
     5    3   22 2
     6    4   27 1
     7    4   33 1
     8    5   29 2
     9    6   30 2
    10    7   33 2
    11    8    9 1
    12    8   12 1
    13    8   13 1
    14    8   20 1
    15    9   10 1
    16    9   15 1
    17    9   35 1
    18   10   11 1
    19   10   18 1
    20   10   36 1
    21   11   14 1
    22   11   16 1
    23   11   37 1
    24   12   17 1
    25   12   22 1
    26   13   14 1
    27   13   38 1
    28   13   39 1
    29   14   40 1
    30   15   17 1
    31   15   41 1
    32   15   42 1
    33   16   21 1
    34   16   23 1
    35   16   24 1
    36   17   43 1
    37   17   44 1
    38   18   19 1
    39   18   45 1
    40   18   46 1
    41   19   21 1
    42   19   25 1
    43   19   47 1
    44   20   48 1
    45   20   49 1
    46   20   50 1
    47   21   26 2
    48   22   27 1
    49   23   51 1
    50   23   52 1
    51   23   53 1
    52   24   28 2
    53   24   54 1
    54   25   56 1
    55   25   57 1
    56   25   58 1
    57   26   29 1
    58   26   59 1
    59   27   60 1
    60   27   61 1
    61   28   29 1
    62   28   62 1
    63   30   31 1
    64   31   32 1
    65   31   63 1
    66   31   64 1
    67   32   65 1
    68   32   66 1
    69   32   67 1
    70   33   34 1
    71   34   68 1
    72   34   69 1
    73   34   70 1
