@<TRIPOS>MOLECULE
DB14783
   31    31     0     0     0
SMALL
USER_CHARGES

@<TRIPOS>ATOM
      1 O1          0.3542   -1.1621    0.3502 O.3       1 <0>        -0.4600
      2 O2          4.4545   -0.7701   -1.4410 O.2       1 <0>        -0.2752
      3 O3          1.8696    1.0877    1.9083 O.2       1 <0>        -0.2752
      4 O4         -1.0199   -2.4720   -0.9668 O.2       1 <0>        -0.2456
      5 O5         -5.2899   -0.0073   -0.4528 O.3       1 <0>        -0.4649
      6 O6         -3.9158    1.3027    0.8638 O.2       1 <0>        -0.2456
      7 N1          3.0534   -0.1810    0.3374 N.am      1 <0>        -0.2389
      8 C1          4.0391    1.5418   -0.9046 C.3       1 <0>         0.0328
      9 C2          3.1964    2.1518    0.2032 C.3       1 <0>         0.0328
     10 C3          2.6980   -1.5020    0.7818 C.3       1 <0>         0.0566
     11 C4          3.8976    0.0573   -0.7325 C.2       1 <0>         0.2223
     12 C5          2.6090    0.9823    0.9396 C.2       1 <0>         0.2223
     13 C6          1.4646   -2.0188    0.0641 C.3       1 <0>         0.1089
     14 C7         -0.8221   -1.5146   -0.2353 C.2       1 <0>         0.3322
     15 C8         -1.8406   -0.5220    0.1727 C.2       1 <0>         0.0292
     16 C9         -3.0951   -0.6475   -0.2753 C.2       1 <0>         0.0292
     17 C10        -4.1136    0.3453    0.1325 C.2       1 <0>         0.3319
     18 C11        -6.4004    0.8497   -0.1669 C.3       1 <0>         0.0820
     19 H1          2.3937    2.7743   -0.2026 H         1 <0>         0.0363
     20 H2          3.8079    2.7484    0.8865 H         1 <0>         0.0363
     21 H3          5.0908    1.8271   -0.8090 H         1 <0>         0.0363
     22 H4          3.6721    1.8351   -1.8925 H         1 <0>         0.0363
     23 H5          2.5047   -1.4609    1.8597 H         1 <0>         0.0503
     24 H6          3.5392   -2.1796    0.6008 H         1 <0>         0.0503
     25 H7          1.2368   -3.0329    0.4121 H         1 <0>         0.0713
     26 H8          1.6335   -2.0396   -1.0191 H         1 <0>         0.0713
     27 H9         -1.5352    0.2859    0.8290 H         1 <0>         0.0691
     28 H10        -3.4001   -1.4554   -0.9318 H         1 <0>         0.0691
     29 H11        -7.2756    0.4590   -0.6929 H         1 <0>         0.0661
     30 H12        -6.1983    1.8634   -0.5258 H         1 <0>         0.0661
     31 H13        -6.6087    0.8539    0.9072 H         1 <0>         0.0661
@<TRIPOS>BOND
     1    1   13 1
     2    1   14 1
     3    2   11 2
     4    3   12 2
     5    4   14 2
     6    5   17 1
     7    5   18 1
     8    6   17 2
     9    7   10 1
    10    7   11 am
    11    7   12 am
    12    8    9 1
    13    8   11 1
    14    8   21 1
    15    8   22 1
    16    9   12 1
    17    9   19 1
    18    9   20 1
    19   10   13 1
    20   10   23 1
    21   10   24 1
    22   13   25 1
    23   13   26 1
    24   14   15 1
    25   15   16 2
    26   15   27 1
    27   16   17 1
    28   16   28 1
    29   18   29 1
    30   18   30 1
    31   18   31 1
