@<TRIPOS>MOLECULE
DB14753
   37    38     0     0     0
SMALL
USER_CHARGES

@<TRIPOS>ATOM
      1 O1         -1.8772    1.8581    1.6290 O.3       1 <0>        -0.5062
      2 N1         -6.8169   -0.8496   -0.7104 N.pl3     1 <0>        -0.2466
      3 N2          6.7645   -1.0058    0.6119 N.pl3     1 <0>        -0.2466
      4 N3         -6.7309    1.0865    0.5956 N.2       1 <0>        -0.0994
      5 N4          6.8974    0.9158   -0.7112 N.2       1 <0>        -0.0994
      6 C1         -1.8740   -0.1359    0.2884 C.ar      1 <0>         0.0165
      7 C2          1.9162    0.2639   -0.3838 C.ar      1 <0>        -0.0250
      8 C3         -2.5418    0.9036    0.9172 C.ar      1 <0>         0.1248
      9 C4         -0.4063   -0.2398    0.3721 C.2       1 <0>        -0.0506
     10 C5         -4.6363    0.0173    0.1018 C.ar      1 <0>         0.0682
     11 C6         -2.5620   -1.1004   -0.4322 C.ar      1 <0>        -0.0503
     12 C7          0.4672    0.3506   -0.4774 C.2       1 <0>        -0.0539
     13 C8         -3.9313    0.9806    0.8233 C.ar      1 <0>        -0.0048
     14 C9         -3.9516   -1.0232   -0.5261 C.ar      1 <0>        -0.0461
     15 C10         2.5077   -0.7679    0.3448 C.ar      1 <0>        -0.0538
     16 C11         2.7143    1.2132   -1.0224 C.ar      1 <0>        -0.0538
     17 C12         4.6953    0.0988   -0.2033 C.ar      1 <0>         0.0647
     18 C13         3.8971   -0.8505    0.4352 C.ar      1 <0>        -0.0463
     19 C14         4.1038    1.1306   -0.9321 C.ar      1 <0>        -0.0463
     20 C15        -6.0850    0.0976    0.0036 C.2       1 <0>         0.3082
     21 C16         6.1440    0.0128   -0.1089 C.2       1 <0>         0.3081
     22 H1         -0.0712   -0.8306    1.2200 H         1 <0>         0.0625
     23 H2         -2.0404   -1.9165   -0.9257 H         1 <0>         0.0625
     24 H3          0.0745    0.9554   -1.2924 H         1 <0>         0.0624
     25 H4         -4.4403    1.8018    1.3221 H         1 <0>         0.0663
     26 H5         -4.4498   -1.7975   -1.0989 H         1 <0>         0.0626
     27 H6          1.9281   -1.5412    0.8404 H         1 <0>         0.0624
     28 H7          2.2708    2.0253   -1.5935 H         1 <0>         0.0624
     29 H8          4.3054   -1.6745    1.0098 H         1 <0>         0.0626
     30 H9          4.6958    1.8864   -1.4411 H         1 <0>         0.0626
     31 H10        -0.9252    1.6717    1.6522 H         1 <0>         0.2922
     32 H11        -7.8273   -0.7756   -0.7685 H         1 <0>         0.2884
     33 H12        -6.4025   -1.6370   -1.1929 H         1 <0>         0.2884
     34 H13         7.7769   -1.0480    0.6672 H         1 <0>         0.2884
     35 H14         6.2639   -1.7360    1.1028 H         1 <0>         0.2884
     36 H15        -7.7339    0.9717    0.4118 H         1 <0>         0.3633
     37 H16         7.8810    0.6882   -0.5286 H         1 <0>         0.3633
@<TRIPOS>BOND
     1    1    8 1
     2    1   31 1
     3    2   20 1
     4    2   32 1
     5    2   33 1
     6    3   21 1
     7    3   34 1
     8    3   35 1
     9    4   20 2
    10    4   36 1
    11    5   21 2
    12    5   37 1
    13    6    8 ar
    14    6    9 1
    15    6   11 ar
    16    7   12 1
    17    7   15 ar
    18    7   16 ar
    19    8   13 ar
    20    9   12 2
    21    9   22 1
    22   10   13 ar
    23   10   14 ar
    24   10   20 1
    25   11   14 ar
    26   11   23 1
    27   12   24 1
    28   13   25 1
    29   14   26 1
    30   15   18 ar
    31   15   27 1
    32   16   19 ar
    33   16   28 1
    34   17   18 ar
    35   17   19 ar
    36   17   21 1
    37   18   29 1
    38   19   30 1
