@<TRIPOS>MOLECULE
DB14078
   15    14     0     0     0
SMALL
USER_CHARGES

@<TRIPOS>ATOM
      1 P1          1.6876   -0.3181   -0.2282 P.3       1 <0>         0.3394
      2 P2         -1.4399    0.0097    0.3554 P.3       1 <0>         0.3394
      3 O1          1.8591   -0.2018    1.3738 O.3       1 <0>        -0.3236
      4 O2          1.6794    1.2203   -0.7214 O.3       1 <0>        -0.3236
      5 O3         -1.5043    1.4293   -0.4139 O.3       1 <0>        -0.3236
      6 O4         -2.7155   -0.7937   -0.2254 O.3       1 <0>        -0.3236
      7 O5          2.6758   -1.2098   -0.9183 O.2       1 <0>        -0.2582
      8 O6         -1.3575    0.0914    1.8499 O.2       1 <0>        -0.2582
      9 C1         -0.0370   -0.8211   -0.4244 C.3       1 <0>         0.1506
     10 H1         -0.2344   -0.8354   -1.5023 H         1 <0>         0.0513
     11 H2         -0.0830   -1.8632   -0.0880 H         1 <0>         0.0513
     12 H3          2.7375    0.0330    1.7421 H         1 <0>         0.2198
     13 H4          2.5245    1.7179   -0.7400 H         1 <0>         0.2198
     14 H5         -2.1788    2.0872   -0.1412 H         1 <0>         0.2198
     15 H6         -3.6134   -0.5457    0.0818 H         1 <0>         0.2198
@<TRIPOS>BOND
     1    1    3 1
     2    1    4 1
     3    1    7 2
     4    1    9 1
     5    2    5 1
     6    2    6 1
     7    2    8 2
     8    2    9 1
     9    3   12 1
    10    4   13 1
    11    5   14 1
    12    6   15 1
    13    9   10 1
    14    9   11 1
