@<TRIPOS>MOLECULE
DB14018
   21    22     0     0     0
SMALL
USER_CHARGES

@<TRIPOS>ATOM
      1 Br1         4.7582   -1.4123   -0.0001 Br        1 <0>        -0.0083
      2 O1         -0.9524   -2.7298    0.0016 O.2       1 <0>        -0.2652
      3 O2         -2.0383    1.8385    0.0024 O.2       1 <0>        -0.2462
      4 N1          0.2111    1.2421    0.0001 N.am      1 <0>        -0.2795
      5 N2         -1.5250   -0.4468    0.0000 N.am      1 <0>        -0.2622
      6 N3          1.8929   -1.8305   -0.0001 N.pl3     1 <0>        -0.3271
      7 N4          2.4917    0.3170   -0.0002 N.2       1 <0>        -0.2034
      8 C1          1.1276    0.1996    0.0004 C.cat     1 <0>         0.1688
      9 C2          0.7327   -1.1104    0.0006 C.2       1 <0>         0.1497
     10 C3         -0.6261   -1.5464    0.0003 C.2       1 <0>         0.2820
     11 C4         -1.1763    0.9521    0.0006 C.2       1 <0>         0.3331
     12 C5          0.6811    2.6217   -0.0003 C.3       1 <0>         0.0181
     13 C6         -2.9487   -0.7660   -0.0009 C.3       1 <0>         0.0196
     14 C7          2.9241   -0.9271   -0.0005 C.2       1 <0>         0.1777
     15 H1          1.9796   -2.8382   -0.0004 H         1 <0>         0.1681
     16 H2         -0.1517    3.3295   -0.0012 H         1 <0>         0.0458
     17 H3          1.2884    2.7902   -0.8950 H         1 <0>         0.0458
     18 H4          1.2875    2.7911    0.8948 H         1 <0>         0.0458
     19 H5         -3.1418   -1.8410   -0.0093 H         1 <0>         0.0458
     20 H6         -3.4088   -0.3094   -0.8831 H         1 <0>         0.0458
     21 H7         -3.4059   -0.3236    0.8900 H         1 <0>         0.0458
@<TRIPOS>BOND
     1    1   14 1
     2    2   10 2
     3    3   11 2
     4    4    8 2
     5    4   11 am
     6    4   12 1
     7    5   10 am
     8    5   11 am
     9    5   13 1
    10    6    9 2
    11    6   14 1
    12    6   15 1
    13    7    8 1
    14    7   14 2
    15    8    9 1
    16    9   10 1
    17   12   16 1
    18   12   17 1
    19   12   18 1
    20   13   19 1
    21   13   20 1
    22   13   21 1
