@<TRIPOS>MOLECULE
DB14540
   67    70     0     0     0
SMALL
USER_CHARGES

@<TRIPOS>ATOM
      1 O1         -2.6515   -0.1066    0.0215 O.3       1 <0>        -0.4497
      2 O2          1.8643    1.9925    1.5726 O.3       1 <0>        -0.3915
      3 O3         -3.7230    2.9187   -0.6021 O.2       1 <0>        -0.2907
      4 O4         -4.3530    2.6938    2.0724 O.3       1 <0>        -0.3874
      5 O5          6.2831   -3.4378    0.6929 O.2       1 <0>        -0.2927
      6 O6         -4.6872    0.3009   -0.9849 O.2       1 <0>        -0.2508
      7 C1         -0.6529    1.3194   -0.1111 C.3       1 <0>         0.0203
      8 C2         -0.0163    0.3871   -1.1646 C.3       1 <0>        -0.0282
      9 C3          1.5194    0.3779   -1.1300 C.3       1 <0>        -0.0313
     10 C4          1.9888   -0.1026    0.2818 C.3       1 <0>        -0.0028
     11 C5         -2.1516    1.1314   -0.4752 C.3       1 <0>         0.1785
     12 C6         -0.2254    0.8061    1.2791 C.3       1 <0>        -0.0168
     13 C7          3.5615   -0.2521    0.3904 C.3       1 <0>        -0.0049
     14 C8          1.3072    0.6927    1.4385 C.3       1 <0>         0.0597
     15 C9         -0.7224    0.7814   -2.4593 C.3       1 <0>        -0.0453
     16 C10        -2.1663    1.1040   -2.0209 C.3       1 <0>        -0.0049
     17 C11         2.0727   -0.5516   -2.2216 C.3       1 <0>        -0.0459
     18 C12        -0.2568    2.8109   -0.2929 C.3       1 <0>        -0.0551
     19 C13         4.0729   -1.0764   -0.7990 C.2       1 <0>        -0.0600
     20 C14         3.5893   -0.6522   -2.1641 C.3       1 <0>        -0.0305
     21 C15         3.8846   -0.9865    1.7244 C.3       1 <0>        -0.0366
     22 C16         4.3143    1.0974    0.3660 C.3       1 <0>        -0.0555
     23 C17        -3.0533    2.1755    0.1136 C.2       1 <0>         0.2022
     24 C18         5.2962   -1.5479    1.7834 C.3       1 <0>         0.0107
     25 C19         4.9328   -2.1028   -0.6905 C.2       1 <0>        -0.0194
     26 C20         5.5418   -2.4607    0.6111 C.2       1 <0>         0.1561
     27 C21        -3.0871    2.2572    1.6248 C.3       1 <0>         0.1063
     28 C22        -3.9467   -0.4015   -0.3107 C.2       1 <0>         0.3080
     29 C23        -4.3204   -1.7375    0.2902 C.3       1 <0>         0.0447
     30 C24        -5.7658   -2.1193   -0.0197 C.3       1 <0>        -0.0458
     31 C25        -6.1201   -3.4783    0.5616 C.3       1 <0>        -0.0648
     32 H1         -0.3340   -0.6473   -0.9509 H         1 <0>         0.0310
     33 H2          1.9021    1.3846   -1.3256 H         1 <0>         0.0307
     34 H3          1.5877   -1.1258    0.3790 H         1 <0>         0.0337
     35 H4         -0.6512   -0.1879    1.4627 H         1 <0>         0.0297
     36 H5         -0.6028    1.4666    2.0648 H         1 <0>         0.0297
     37 H6          1.4991    0.1742    2.3847 H         1 <0>         0.0596
     38 H7         -0.7044   -0.0270   -3.1975 H         1 <0>         0.0270
     39 H8         -0.2552    1.6599   -2.9186 H         1 <0>         0.0270
     40 H9         -2.4536    2.0619   -2.4679 H         1 <0>         0.0308
     41 H10        -2.8181    0.3393   -2.4530 H         1 <0>         0.0308
     42 H11         1.7843   -0.1810   -3.2124 H         1 <0>         0.0271
     43 H12         1.6361   -1.5538   -2.1194 H         1 <0>         0.0271
     44 H13        -0.7036    3.2572   -1.1876 H         1 <0>         0.0237
     45 H14        -0.5822    3.4148    0.5602 H         1 <0>         0.0237
     46 H15         0.8206    2.9585   -0.3889 H         1 <0>         0.0237
     47 H16         4.0320    0.3197   -2.4146 H         1 <0>         0.0310
     48 H17         3.9251   -1.3504   -2.9408 H         1 <0>         0.0310
     49 H18         3.1834   -1.8217    1.8619 H         1 <0>         0.0278
     50 H19         3.7382   -0.3162    2.5799 H         1 <0>         0.0278
     51 H20         3.9437    1.7647   -0.4182 H         1 <0>         0.0238
     52 H21         4.2362    1.6270    1.3204 H         1 <0>         0.0238
     53 H22         5.3867    0.9566    0.1825 H         1 <0>         0.0238
     54 H23         5.4148   -2.1264    2.7061 H         1 <0>         0.0345
     55 H24         6.0510   -0.7552    1.7781 H         1 <0>         0.0345
     56 H25         1.4448    2.4185    2.3393 H         1 <0>         0.2098
     57 H26         5.2633   -2.6684   -1.5552 H         1 <0>         0.0652
     58 H27        -2.3404    2.9765    1.9665 H         1 <0>         0.0638
     59 H28        -2.8985    1.2860    2.0868 H         1 <0>         0.0638
     60 H29        -3.6408   -2.4946   -0.1168 H         1 <0>         0.0377
     61 H30        -4.1789   -1.6761    1.3751 H         1 <0>         0.0377
     62 H31        -4.9998    2.0073    1.8357 H         1 <0>         0.2100
     63 H32        -6.4472   -1.3616    0.3854 H         1 <0>         0.0268
     64 H33        -5.9236   -2.1390   -1.1047 H         1 <0>         0.0268
     65 H34        -7.1594   -3.7309    0.3288 H         1 <0>         0.0230
     66 H35        -5.4788   -4.2621    0.1460 H         1 <0>         0.0230
     67 H36        -6.0054   -3.4811    1.6502 H         1 <0>         0.0230
@<TRIPOS>BOND
     1    1   11 1
     2    1   28 1
     3    2   14 1
     4    2   56 1
     5    3   23 2
     6    4   27 1
     7    4   62 1
     8    5   26 2
     9    6   28 2
    10    7    8 1
    11    7   11 1
    12    7   12 1
    13    7   18 1
    14    8    9 1
    15    8   15 1
    16    8   32 1
    17    9   10 1
    18    9   17 1
    19    9   33 1
    20   10   13 1
    21   10   14 1
    22   10   34 1
    23   11   16 1
    24   11   23 1
    25   12   14 1
    26   12   35 1
    27   12   36 1
    28   13   19 1
    29   13   21 1
    30   13   22 1
    31   14   37 1
    32   15   16 1
    33   15   38 1
    34   15   39 1
    35   16   40 1
    36   16   41 1
    37   17   20 1
    38   17   42 1
    39   17   43 1
    40   18   44 1
    41   18   45 1
    42   18   46 1
    43   19   20 1
    44   19   25 2
    45   20   47 1
    46   20   48 1
    47   21   24 1
    48   21   49 1
    49   21   50 1
    50   22   51 1
    51   22   52 1
    52   22   53 1
    53   23   27 1
    54   24   26 1
    55   24   54 1
    56   24   55 1
    57   25   26 1
    58   25   57 1
    59   27   58 1
    60   27   59 1
    61   28   29 1
    62   29   30 1
    63   29   60 1
    64   29   61 1
    65   30   31 1
    66   30   63 1
    67   30   64 1
    68   31   65 1
    69   31   66 1
    70   31   67 1
