@<TRIPOS>MOLECULE
DB14761
   77    80     0     0     0
SMALL
USER_CHARGES

@<TRIPOS>ATOM
      1 P1          0.4334   -0.0533   -0.9000 P.3       1 <0>         0.4624
      2 O1          3.8947   -2.1131   -1.1362 O.3       1 <0>        -0.3430
      3 O2          5.7448   -3.3423    1.7008 O.3       1 <0>        -0.3848
      4 O3          4.3167   -4.8962   -0.0456 O.3       1 <0>        -0.3864
      5 O4          1.1549   -1.4956   -1.1312 O.3       1 <0>        -0.2843
      6 O5          1.6155    0.7678   -0.1526 O.3       1 <0>        -0.4128
      7 O6          0.0582    0.5640   -2.2237 O.2       1 <0>        -0.2281
      8 O7         -4.3973   -0.5299    0.1297 O.3       1 <0>        -0.4633
      9 O8         -2.9663    0.5562    1.5733 O.2       1 <0>        -0.2491
     10 N1          5.0842    0.4457   -0.9245 N.ar      1 <0>        -0.2281
     11 N2          4.4576    0.2883   -2.1155 N.ar      1 <0>        -0.1545
     12 N3         -0.7867   -0.2824    0.1974 N.pl3     1 <0>        -0.1988
     13 N4          7.0663   -3.1727   -1.5492 N.1       1 <0>        -0.1930
     14 N5          4.6632    2.6758   -2.3738 N.ar      1 <0>        -0.2173
     15 N6          5.6590    4.0928   -0.8070 N.pl3     1 <0>        -0.3414
     16 C1          5.0644   -2.0094   -0.2840 C.3       1 <0>         0.2253
     17 C2          4.6619   -2.7548    1.0052 C.3       1 <0>         0.1313
     18 C3          3.6473   -3.7764    0.5297 C.3       1 <0>         0.1134
     19 C4          2.9214   -3.0103   -0.5630 C.3       1 <0>         0.1133
     20 C5          5.4004   -0.5421   -0.0289 C.cat     1 <0>         0.0921
     21 C6          1.7572   -2.1770   -0.0432 C.3       1 <0>         0.0879
     22 C7          6.1860   -2.6611   -0.9929 C.1       1 <0>         0.1070
     23 C8          6.0296    0.0488    1.0461 C.2       1 <0>        -0.0343
     24 C9          5.5029    1.6563   -0.4360 C.ar      1 <0>         0.1053
     25 C10         6.0953    1.4416    0.7895 C.2       1 <0>        -0.0311
     26 C11         5.2697    2.8425   -1.2248 C.ar      1 <0>         0.1436
     27 C12        -2.0835   -0.7480   -0.2904 C.3       1 <0>         0.1129
     28 C13         4.2853    1.4045   -2.7658 C.ar      1 <0>         0.1388
     29 C14        -6.8233   -0.5392    0.2290 C.3       1 <0>        -0.0072
     30 C15        -5.5133   -0.0409    0.8609 C.3       1 <0>         0.0953
     31 C16        -6.9089   -0.2177   -1.2798 C.3       1 <0>        -0.0500
     32 C17        -8.0180   -0.0194    1.0524 C.3       1 <0>        -0.0500
     33 C18        -3.1626   -0.1537    0.5954 C.2       1 <0>         0.3245
     34 C19        -2.1324   -2.2692   -0.2503 C.3       1 <0>        -0.0388
     35 C20         1.4890    2.0107    0.4065 C.ar      1 <0>         0.1311
     36 C21        -6.9325    1.2648   -1.6255 C.3       1 <0>        -0.0649
     37 C22        -9.3671   -0.5347    0.5721 C.3       1 <0>        -0.0649
     38 C23         0.5762    2.9234   -0.1215 C.ar      1 <0>        -0.0194
     39 C24         2.2731    2.3644    1.5044 C.ar      1 <0>        -0.0194
     40 C25         0.4472    4.1902    0.4484 C.ar      1 <0>        -0.0583
     41 C26         2.1444    3.6309    2.0745 C.ar      1 <0>        -0.0583
     42 C27         1.2315    4.5439    1.5465 C.ar      1 <0>        -0.0615
     43 H1          4.1592   -2.0653    1.6963 H         1 <0>         0.0664
     44 H2          3.0018   -4.1489    1.3304 H         1 <0>         0.0647
     45 H3          2.5788   -3.6621   -1.3744 H         1 <0>         0.0647
     46 H4          2.0973   -1.4556    0.7052 H         1 <0>         0.0592
     47 H5          1.0027   -2.8213    0.4189 H         1 <0>         0.0592
     48 H6          5.3738   -3.8578    2.4373 H         1 <0>         0.2101
     49 H7          6.4052   -0.4615    1.9221 H         1 <0>         0.0637
     50 H8          3.6339   -5.4993   -0.3856 H         1 <0>         0.2100
     51 H9          6.5271    2.1972    1.4307 H         1 <0>         0.0640
     52 H10        -0.5561   -0.7306    1.0832 H         1 <0>         0.1354
     53 H11        -2.2598   -0.3769   -1.3059 H         1 <0>         0.0578
     54 H12        -6.8161   -1.6361    0.3004 H         1 <0>         0.0333
     55 H13         3.7796    1.3451   -3.7435 H         1 <0>         0.1066
     56 H14        -5.4469   -0.4037    1.8943 H         1 <0>         0.0700
     57 H15        -5.4874    1.0551    0.8797 H         1 <0>         0.0700
     58 H16        -7.8010   -0.6919   -1.7053 H         1 <0>         0.0266
     59 H17        -6.0599   -0.6802   -1.7983 H         1 <0>         0.0266
     60 H18        -7.8889   -0.3317    2.0966 H         1 <0>         0.0266
     61 H19        -8.0326    1.0766    1.0593 H         1 <0>         0.0266
     62 H20         6.1283    4.2425    0.0799 H         1 <0>         0.1438
     63 H21         5.4828    4.9111   -1.3799 H         1 <0>         0.1438
     64 H22        -1.3479   -2.7089   -0.8747 H         1 <0>         0.0250
     65 H23        -3.0921   -2.6423   -0.6242 H         1 <0>         0.0250
     66 H24        -2.0131   -2.6505    0.7705 H         1 <0>         0.0250
     67 H25        -6.0241    1.7712   -1.2872 H         1 <0>         0.0230
     68 H26        -7.7972    1.7676   -1.1834 H         1 <0>         0.0230
     69 H27        -6.9961    1.3919   -2.7112 H         1 <0>         0.0230
     70 H28        -9.6256   -0.1306   -0.4109 H         1 <0>         0.0230
     71 H29       -10.1541   -0.2298    1.2695 H         1 <0>         0.0230
     72 H30        -9.3727   -1.6276    0.5128 H         1 <0>         0.0230
     73 H31        -0.0451    2.6872   -0.9773 H         1 <0>         0.0654
     74 H32         2.9830    1.6559    1.9220 H         1 <0>         0.0654
     75 H33        -0.2625    4.9018    0.0366 H         1 <0>         0.0619
     76 H34         2.7549    3.9059    2.9295 H         1 <0>         0.0619
     77 H35         1.1316    5.5302    1.9900 H         1 <0>         0.0618
@<TRIPOS>BOND
     1    1    5 1
     2    1    6 1
     3    1    7 2
     4    1   12 1
     5    2   16 1
     6    2   19 1
     7    3   17 1
     8    3   48 1
     9    4   18 1
    10    4   50 1
    11    5   21 1
    12    6   35 1
    13    8   30 1
    14    8   33 1
    15    9   33 2
    16   10   11 ar
    17   10   20 1
    18   10   24 ar
    19   11   28 ar
    20   12   27 1
    21   12   52 1
    22   13   22 3
    23   14   26 ar
    24   14   28 ar
    25   15   26 1
    26   15   62 1
    27   15   63 1
    28   16   17 1
    29   16   20 1
    30   16   22 1
    31   17   18 1
    32   17   43 1
    33   18   19 1
    34   18   44 1
    35   19   21 1
    36   19   45 1
    37   20   23 1
    38   21   46 1
    39   21   47 1
    40   23   25 2
    41   23   49 1
    42   24   25 1
    43   24   26 ar
    44   25   51 1
    45   27   33 1
    46   27   34 1
    47   27   53 1
    48   28   55 1
    49   29   30 1
    50   29   31 1
    51   29   32 1
    52   29   54 1
    53   30   56 1
    54   30   57 1
    55   31   36 1
    56   31   58 1
    57   31   59 1
    58   32   37 1
    59   32   60 1
    60   32   61 1
    61   34   64 1
    62   34   65 1
    63   34   66 1
    64   35   38 ar
    65   35   39 ar
    66   36   67 1
    67   36   68 1
    68   36   69 1
    69   37   70 1
    70   37   71 1
    71   37   72 1
    72   38   40 ar
    73   38   73 1
    74   39   41 ar
    75   39   74 1
    76   40   42 ar
    77   40   75 1
    78   41   42 ar
    79   41   76 1
    80   42   77 1
