@<TRIPOS>MOLECULE
DB14569
   42    45     0     0     0
SMALL
USER_CHARGES

@<TRIPOS>ATOM
      1 F1          0.1966    1.6775   -1.9627 F         1 <0>        -0.2048
      2 O1         -6.2042    0.8809   -0.7743 O.3       1 <0>        -0.4428
      3 O2         -7.9755   -1.3350   -0.8433 O.3       1 <0>        -0.3913
      4 O3         -4.5519    1.7381   -2.0699 O.2       1 <0>        -0.2259
      5 N1         -4.0810    0.4728   -0.1268 N.am      1 <0>        -0.2336
      6 N2          3.6482   -0.7340   -0.4913 N.ar      1 <0>        -0.2511
      7 N3          6.4014   -0.8515   -0.4135 N.2       1 <0>        -0.1291
      8 N4          7.6528   -0.4825   -0.1059 N.pl3     1 <0>        -0.1659
      9 N5          6.5284    1.0478    0.8129 N.2       1 <0>        -0.1062
     10 N6          7.7758    0.6376    0.6196 N.2       1 <0>        -0.0460
     11 C1         -6.2899   -0.0771    0.2898 C.3       1 <0>         0.1436
     12 C2         -4.9119   -0.0663    0.9161 C.3       1 <0>         0.0623
     13 C3         -2.6582    0.4460   -0.0713 C.ar      1 <0>         0.0423
     14 C4         -6.6722   -1.4295   -0.2956 C.3       1 <0>         0.0828
     15 C5         -4.8795    1.0842   -1.0899 C.2       1 <0>         0.4077
     16 C6         -1.9029    1.0843   -1.0598 C.ar      1 <0>        -0.0043
     17 C7         -2.0067   -0.2182    0.9725 C.ar      1 <0>        -0.0394
     18 C8          0.1354    0.3948    0.0388 C.ar      1 <0>         0.0189
     19 C9         -0.5094    1.0589   -1.0049 C.ar      1 <0>         0.1329
     20 C10        -0.6132   -0.2437    1.0273 C.ar      1 <0>        -0.0495
     21 C11         1.5812    0.3658    0.1002 C.ar      1 <0>         0.0030
     22 C12         2.2869    1.3547    0.7731 C.ar      1 <0>        -0.0504
     23 C13         2.2990   -0.6478   -0.5103 C.ar      1 <0>         0.0362
     24 C14         3.6757    1.3005    0.8147 C.ar      1 <0>        -0.0319
     25 C15         4.3030    0.2451    0.1725 C.ar      1 <0>         0.1114
     26 C16         5.7338    0.1374    0.1839 C.2       1 <0>         0.2226
     27 C17         8.7985   -1.2447   -0.5297 C.3       1 <0>         0.0516
     28 H1         -7.0527    0.2611    0.9996 H         1 <0>         0.0774
     29 H2         -4.8761    0.6226    1.7677 H         1 <0>         0.0507
     30 H3         -4.6035   -1.0663    1.2342 H         1 <0>         0.0507
     31 H4         -6.6693   -2.2145    0.4669 H         1 <0>         0.0594
     32 H5         -5.9976   -1.7228   -1.1060 H         1 <0>         0.0594
     33 H6         -2.3377    1.6154   -1.8958 H         1 <0>         0.0665
     34 H7         -2.5465   -0.7213    1.7683 H         1 <0>         0.0636
     35 H8         -0.1261   -0.7642    1.8488 H         1 <0>         0.0625
     36 H9         -8.5853   -1.1145   -0.1187 H         1 <0>         0.2096
     37 H10         1.7715    2.1732    1.2693 H         1 <0>         0.0625
     38 H11         1.8057   -1.4497   -1.0520 H         1 <0>         0.0836
     39 H12         4.2233    2.0750    1.3415 H         1 <0>         0.0640
     40 H13         9.1186   -1.8701    0.3069 H         1 <0>         0.0491
     41 H14         8.5215   -1.8664   -1.3846 H         1 <0>         0.0491
     42 H15         9.5944   -0.5537   -0.8180 H         1 <0>         0.0491
@<TRIPOS>BOND
     1    1   19 1
     2    2   11 1
     3    2   15 1
     4    3   14 1
     5    3   36 1
     6    4   15 2
     7    5   12 1
     8    5   13 1
     9    5   15 am
    10    6   23 ar
    11    6   25 ar
    12    7    8 1
    13    7   26 2
    14    8   10 1
    15    8   27 1
    16    9   10 2
    17    9   26 1
    18   11   12 1
    19   11   14 1
    20   11   28 1
    21   12   29 1
    22   12   30 1
    23   13   16 ar
    24   13   17 ar
    25   14   31 1
    26   14   32 1
    27   16   19 ar
    28   16   33 1
    29   17   20 ar
    30   17   34 1
    31   18   19 ar
    32   18   20 ar
    33   18   21 1
    34   20   35 1
    35   21   22 ar
    36   21   23 ar
    37   22   24 ar
    38   22   37 1
    39   23   38 1
    40   24   25 ar
    41   24   39 1
    42   25   26 1
    43   27   40 1
    44   27   41 1
    45   27   42 1
