@<TRIPOS>MOLECULE
DB14177
   25    25     0     0     0
SMALL
USER_CHARGES

@<TRIPOS>ATOM
      1 O1         -0.9586    0.0566    0.0033 O.3       1 <0>        -0.4612
      2 O2         -0.2068    2.2224    0.0016 O.2       1 <0>        -0.2450
      3 O3          5.2073   -1.1296   -0.0028 O.3       1 <0>        -0.5068
      4 C1         -3.2529   -0.6570    0.0061 C.3       1 <0>        -0.0214
      5 C2         -2.3083    0.5353    0.0046 C.3       1 <0>         0.0925
      6 C3          1.3715    0.4567    0.0010 C.ar      1 <0>         0.0592
      7 C4         -4.7081   -0.2246   -0.0076 C.3       1 <0>        -0.0622
      8 C5          0.0275    1.0120    0.0019 C.2       1 <0>         0.3392
      9 C6          2.4778    1.3064   -0.0002 C.ar      1 <0>        -0.0443
     10 C7          1.5543   -0.9262    0.0012 C.ar      1 <0>        -0.0443
     11 C8          3.7668    0.7732   -0.0015 C.ar      1 <0>        -0.0194
     12 C9          2.8433   -1.4592    0.0001 C.ar      1 <0>        -0.0194
     13 C10         3.9496   -0.6095   -0.0015 C.ar      1 <0>         0.1169
     14 H1         -3.0449   -1.2918   -0.8636 H         1 <0>         0.0295
     15 H2         -3.0570   -1.2799    0.8870 H         1 <0>         0.0295
     16 H3         -2.4740    1.1470   -0.8898 H         1 <0>         0.0697
     17 H4         -2.4729    1.1484    0.8982 H         1 <0>         0.0697
     18 H5         -4.9333    0.3665   -0.9011 H         1 <0>         0.0231
     19 H6         -5.3641   -1.1006   -0.0058 H         1 <0>         0.0231
     20 H7         -4.9459    0.3798    0.8736 H         1 <0>         0.0231
     21 H8          2.3587    2.3867   -0.0003 H         1 <0>         0.0627
     22 H9          0.7197   -1.6217    0.0020 H         1 <0>         0.0627
     23 H10         4.6204    1.4458   -0.0027 H         1 <0>         0.0654
     24 H11         2.9799   -2.5372    0.0002 H         1 <0>         0.0654
     25 H12         5.8501   -0.3997   -0.0037 H         1 <0>         0.2921
@<TRIPOS>BOND
     1    1    5 1
     2    1    8 1
     3    2    8 2
     4    3   13 1
     5    3   25 1
     6    4    5 1
     7    4    7 1
     8    4   14 1
     9    4   15 1
    10    5   16 1
    11    5   17 1
    12    6    8 1
    13    6    9 ar
    14    6   10 ar
    15    7   18 1
    16    7   19 1
    17    7   20 1
    18    9   11 ar
    19    9   21 1
    20   10   12 ar
    21   10   22 1
    22   11   13 ar
    23   11   23 1
    24   12   13 ar
    25   12   24 1
