@<TRIPOS>MOLECULE
DB14173
   33    33     0     0     0
SMALL
USER_CHARGES

@<TRIPOS>ATOM
      1 O1         -1.1827   -1.7076   -1.6141 O.2       1 <0>        -0.2712
      2 O2         -3.5181    1.4056    0.8486 O.2       1 <0>        -0.2518
      3 O3         -0.4117    3.3988   -0.6176 O.3       1 <0>        -0.3768
      4 O4          0.8583   -2.0881    1.1239 O.3       1 <0>        -0.3768
      5 O5         -3.8316   -2.0914    0.6436 O.3       1 <0>        -0.3764
      6 O6          2.1398    0.6452   -1.7170 O.2       1 <0>        -0.2525
      7 O7          5.1815   -1.0622    0.6120 O.3       1 <0>        -0.3771
      8 N1         -1.3197    1.3511    0.0292 N.am      1 <0>        -0.2348
      9 N2          0.6513   -0.0602   -0.0731 N.am      1 <0>        -0.2353
     10 N3         -2.6721   -0.3673   -0.4157 N.am      1 <0>        -0.1989
     11 N4          2.9903   -0.4706    0.1037 N.am      1 <0>        -0.2765
     12 C1         -0.4967    0.4579   -0.7526 C.3       1 <0>         0.1789
     13 C2         -1.4663   -0.6834   -1.0065 C.2       1 <0>         0.2641
     14 C3         -2.6155    0.8574    0.2283 C.2       1 <0>         0.3165
     15 C4         -0.8302    2.6326    0.4952 C.3       1 <0>         0.1162
     16 C5          0.4159   -0.7433    1.2114 C.3       1 <0>         0.1162
     17 C6         -3.8500   -1.2107   -0.4632 C.3       1 <0>         0.1213
     18 C7          1.9480    0.0803   -0.6361 C.2       1 <0>         0.3074
     19 C8          4.3624   -0.4172   -0.3444 C.3       1 <0>         0.1113
     20 H1         -0.2528    0.9353   -1.7067 H         1 <0>         0.0814
     21 H2         -1.6215    3.1670    1.0282 H         1 <0>         0.0770
     22 H3          0.0178    2.4647    1.1652 H         1 <0>         0.0770
     23 H4          0.9999   -0.2351    1.9852 H         1 <0>         0.0770
     24 H5         -0.6332   -0.7345    1.5149 H         1 <0>         0.0770
     25 H6         -3.8443   -1.7992   -1.3853 H         1 <0>         0.0774
     26 H7         -4.7495   -0.5909   -0.4090 H         1 <0>         0.0774
     27 H8          2.8033   -0.9539    0.9743 H         1 <0>         0.1524
     28 H9         -0.0769    4.2443   -0.2733 H         1 <0>         0.2115
     29 H10         0.4334   -2.4730    0.3388 H         1 <0>         0.2115
     30 H11        -4.6305   -2.6425    0.5844 H         1 <0>         0.2115
     31 H12         4.4426   -0.9271   -1.3089 H         1 <0>         0.0768
     32 H13         4.6629    0.6295   -0.4488 H         1 <0>         0.0768
     33 H14         6.0959   -1.0114    0.2856 H         1 <0>         0.2114
@<TRIPOS>BOND
     1    1   13 2
     2    2   14 2
     3    3   15 1
     4    3   28 1
     5    4   16 1
     6    4   29 1
     7    5   17 1
     8    5   30 1
     9    6   18 2
    10    7   19 1
    11    7   33 1
    12    8   12 1
    13    8   14 am
    14    8   15 1
    15    9   12 1
    16    9   16 1
    17    9   18 am
    18   10   13 am
    19   10   14 am
    20   10   17 1
    21   11   18 am
    22   11   19 1
    23   11   27 1
    24   12   13 1
    25   12   20 1
    26   15   21 1
    27   15   22 1
    28   16   23 1
    29   16   24 1
    30   17   25 1
    31   17   26 1
    32   19   31 1
    33   19   32 1
