@<TRIPOS>MOLECULE
DB14183
   29    28     0     0     0
SMALL
USER_CHARGES

@<TRIPOS>ATOM
      1 O1          4.2967    2.1040    0.3362 O.3       1 <0>        -0.3910
      2 C1          0.3328   -0.5067   -0.6735 C.3       1 <0>        -0.0285
      3 C2         -0.6350   -0.8126    0.4771 C.3       1 <0>        -0.0308
      4 C3          1.7859   -0.4521   -0.2504 C.2       1 <0>        -0.0741
      5 C4         -2.0707   -0.8472    0.0314 C.2       1 <0>        -0.0850
      6 C5         -2.9814    0.1430    0.0841 C.2       1 <0>        -0.0796
      7 C6          2.3399   -1.7392    0.3052 C.3       1 <0>        -0.0437
      8 C7          2.5816    0.6288   -0.3672 C.2       1 <0>        -0.0600
      9 C8         -4.3854   -0.0886   -0.4080 C.3       1 <0>        -0.0440
     10 C9         -2.7266    1.5320    0.5959 C.3       1 <0>        -0.0440
     11 C10         4.0274    0.7506   -0.0040 C.3       1 <0>         0.0626
     12 H1          0.2254   -1.2655   -1.4597 H         1 <0>         0.0313
     13 H2          0.0486    0.4483   -1.1353 H         1 <0>         0.0313
     14 H3         -0.4959   -0.0866    1.2864 H         1 <0>         0.0310
     15 H4         -0.4033   -1.7902    0.9180 H         1 <0>         0.0310
     16 H5         -2.3807   -1.8053   -0.3844 H         1 <0>         0.0572
     17 H6          1.9751   -2.5905   -0.2805 H         1 <0>         0.0274
     18 H7          2.0203   -1.8748    1.3432 H         1 <0>         0.0274
     19 H8          3.4312   -1.7958    0.2731 H         1 <0>         0.0274
     20 H9          2.1371    1.5195   -0.8107 H         1 <0>         0.0594
     21 H10        -4.6160    0.5940   -1.2326 H         1 <0>         0.0274
     22 H11        -4.5384   -1.1105   -0.7708 H         1 <0>         0.0274
     23 H12        -5.1032    0.0870    0.4000 H         1 <0>         0.0274
     24 H13        -3.3349    1.7237    1.4859 H         1 <0>         0.0274
     25 H14        -1.6809    1.7064    0.8611 H         1 <0>         0.0274
     26 H15        -2.9910    2.2701   -0.1689 H         1 <0>         0.0274
     27 H16         4.6655    0.4752   -0.8489 H         1 <0>         0.0601
     28 H17         4.2929    0.1423    0.8639 H         1 <0>         0.0601
     29 H18         4.1833    2.6408   -0.4669 H         1 <0>         0.2098
@<TRIPOS>BOND
     1    1   11 1
     2    1   29 1
     3    2    3 1
     4    2    4 1
     5    2   12 1
     6    2   13 1
     7    3    5 1
     8    3   14 1
     9    3   15 1
    10    4    7 1
    11    4    8 2
    12    5    6 2
    13    5   16 1
    14    6    9 1
    15    6   10 1
    16    7   17 1
    17    7   18 1
    18    7   19 1
    19    8   11 1
    20    8   20 1
    21    9   21 1
    22    9   22 1
    23    9   23 1
    24   10   24 1
    25   10   25 1
    26   10   26 1
    27   11   27 1
    28   11   28 1
