@<TRIPOS>MOLECULE
DB14638
   32    33     0     0     0
SMALL
USER_CHARGES

@<TRIPOS>ATOM
      1 Cl1         6.0574   -1.7645   -1.4371 Cl        1 <0>        -0.0945
      2 Cl2         6.4034   -1.2746    1.4163 Cl        1 <0>        -0.0945
      3 O1         -2.2797   -0.1956    0.6040 O.3       1 <0>        -0.4202
      4 O2         -5.2806    0.3122   -1.3246 O.3       1 <0>        -0.4563
      5 O3          3.6347   -2.0600    0.4515 O.2       1 <0>        -0.2723
      6 O4         -2.5320    0.4998   -1.5967 O.2       1 <0>        -0.2410
      7 N1          3.2176    0.2017   -0.0108 N.am      1 <0>        -0.2723
      8 C1          1.8347    0.1011    0.1442 C.ar      1 <0>         0.0362
      9 C2          1.1852   -1.0979   -0.1484 C.ar      1 <0>        -0.0368
     10 C3          1.1018    1.2009    0.5906 C.ar      1 <0>        -0.0368
     11 C4         -0.9308   -0.0978    0.4519 C.ar      1 <0>         0.1322
     12 C5         -0.1975   -1.1974    0.0052 C.ar      1 <0>        -0.0175
     13 C6         -0.2810    1.1013    0.7444 C.ar      1 <0>        -0.0175
     14 C7          3.8665    1.5026   -0.3621 C.3       1 <0>         0.0084
     15 C8          4.0733   -0.9422    0.1612 C.2       1 <0>         0.2523
     16 C9          5.5653   -0.7555   -0.0550 C.3       1 <0>         0.1835
     17 C10        -4.4758    0.0131   -0.2957 C.2       1 <0>         0.2116
     18 C11        -3.0375    0.1426   -0.5369 C.2       1 <0>         0.3801
     19 C12        -5.1425   -0.3659    0.8138 C.2       1 <0>        -0.0093
     20 C13        -6.5099   -0.3011    0.4543 C.2       1 <0>        -0.0231
     21 C14        -6.5409    0.1162   -0.8559 C.2       1 <0>         0.0929
     22 H1          1.6832   -1.9597   -0.5785 H         1 <0>         0.0637
     23 H2          1.5753    2.1403    0.8604 H         1 <0>         0.0637
     24 H3         -0.7008   -2.1286   -0.2408 H         1 <0>         0.0655
     25 H4         -0.8456    1.9589    1.1004 H         1 <0>         0.0655
     26 H5          4.4980    1.3628   -1.2444 H         1 <0>         0.0433
     27 H6          4.4618    1.8419    0.4902 H         1 <0>         0.0433
     28 H7          3.1290    2.2634   -0.6290 H         1 <0>         0.0433
     29 H8          5.9019    0.2562   -0.2554 H         1 <0>         0.0732
     30 H9         -4.7321   -0.6564    1.7702 H         1 <0>         0.0657
     31 H10        -7.3658   -0.5300    1.0727 H         1 <0>         0.0649
     32 H11        -7.3369    0.3118   -1.5596 H         1 <0>         0.1029
@<TRIPOS>BOND
     1    1   16 1
     2    2   16 1
     3    3   11 1
     4    3   18 1
     5    4   17 1
     6    4   21 1
     7    5   15 2
     8    6   18 2
     9    7    8 1
    10    7   14 1
    11    7   15 am
    12    8    9 ar
    13    8   10 ar
    14    9   12 ar
    15    9   22 1
    16   10   13 ar
    17   10   23 1
    18   11   12 ar
    19   11   13 ar
    20   12   24 1
    21   13   25 1
    22   14   26 1
    23   14   27 1
    24   14   28 1
    25   15   16 1
    26   16   29 1
    27   17   18 1
    28   17   19 2
    29   19   20 1
    30   19   30 1
    31   20   21 2
    32   20   31 1
    33   21   32 1
