@<TRIPOS>MOLECULE
DB14545
   67    70     0     0     0
SMALL
USER_CHARGES

@<TRIPOS>ATOM
      1 O1         -1.4273   -1.6028    1.8379 O.3       1 <0>        -0.3804
      2 O2          1.1026    1.4252   -1.5733 O.3       1 <0>        -0.3915
      3 O3         -3.2051   -2.7472   -0.6558 O.2       1 <0>        -0.2907
      4 O4         -4.6551   -0.5014    0.0183 O.3       1 <0>        -0.4568
      5 O5          7.1703    2.5753    1.8393 O.2       1 <0>        -0.2927
      6 O6         -4.8167    1.7982    0.0875 O.2       1 <0>        -0.2508
      7 O7         -9.9148    2.4822    0.1983 O.3       1 <0>        -0.4806
      8 O8         -9.5915    0.2336    0.2415 O.2       1 <0>        -0.2510
      9 C1         -0.1831   -1.0464   -0.2086 C.3       1 <0>         0.0092
     10 C2          1.0890   -1.7292    0.3388 C.3       1 <0>        -0.0292
     11 C3          2.3933   -1.1160   -0.1928 C.3       1 <0>        -0.0314
     12 C4          2.4447    0.3920    0.2162 C.3       1 <0>        -0.0028
     13 C5         -1.2623   -1.9395    0.4636 C.3       1 <0>         0.1326
     14 C6         -0.1479    0.4278    0.2438 C.3       1 <0>        -0.0179
     15 C7          3.8038    1.0952   -0.1911 C.3       1 <0>        -0.0049
     16 C8          1.1450    1.1606   -0.1783 C.3       1 <0>         0.0597
     17 C9          0.8229   -3.2138    0.1043 C.3       1 <0>        -0.0463
     18 C10        -0.6915   -3.3722    0.3544 C.3       1 <0>        -0.0161
     19 C11         3.6074   -1.8658    0.3780 C.3       1 <0>        -0.0459
     20 C12        -0.3156   -1.1449   -1.7537 C.3       1 <0>        -0.0562
     21 C13         4.9802    0.2336    0.2878 C.2       1 <0>        -0.0600
     22 C14         4.9199   -1.2336   -0.0598 C.3       1 <0>        -0.0305
     23 C15         3.8504    2.4897    0.4991 C.3       1 <0>        -0.0366
     24 C16         3.9695    1.2846   -1.7159 C.3       1 <0>        -0.0555
     25 C17        -2.6294   -1.7925   -0.1361 C.2       1 <0>         0.2022
     26 C18         5.2389    3.1081    0.5277 C.3       1 <0>         0.0107
     27 C19         6.0464    0.7143    0.9490 C.2       1 <0>        -0.0194
     28 C20         6.2137    2.1668    1.1845 C.2       1 <0>         0.1561
     29 C21        -3.2484   -0.4129   -0.0635 C.3       1 <0>         0.1530
     30 C22        -5.3364    0.6911    0.0899 C.2       1 <0>         0.3080
     31 C23        -6.8231    0.4194    0.1744 C.3       1 <0>         0.0550
     32 C24        -7.6647    1.6899    0.1706 C.3       1 <0>         0.0548
     33 C25        -9.1389    1.3703    0.1999 C.2       1 <0>         0.3052
     34 H1          1.1117   -1.5960    1.4333 H         1 <0>         0.0310
     35 H2          2.4298   -1.2064   -1.2831 H         1 <0>         0.0307
     36 H3          2.4349    0.3853    1.3194 H         1 <0>         0.0337
     37 H4         -1.0007    0.9762   -0.1661 H         1 <0>         0.0297
     38 H5         -0.2210    0.4898    1.3364 H         1 <0>         0.0297
     39 H6          1.1454    2.1355    0.3221 H         1 <0>         0.0596
     40 H7          1.0754   -3.5086   -0.9206 H         1 <0>         0.0269
     41 H8          1.4022   -3.8478    0.7834 H         1 <0>         0.0269
     42 H9         -0.8567   -3.9416    1.2763 H         1 <0>         0.0297
     43 H10        -1.1196   -3.9523   -0.4700 H         1 <0>         0.0297
     44 H11         3.5578   -1.8823    1.4748 H         1 <0>         0.0271
     45 H12         3.5943   -2.9104    0.0455 H         1 <0>         0.0271
     46 H13        -0.5286   -2.1646   -2.0918 H         1 <0>         0.0236
     47 H14        -1.1269   -0.5108   -2.1246 H         1 <0>         0.0236
     48 H15         0.5893   -0.8361   -2.2807 H         1 <0>         0.0236
     49 H16         5.7475   -1.7869    0.4012 H         1 <0>         0.0310
     50 H17         5.0406   -1.3500   -1.1438 H         1 <0>         0.0310
     51 H18         3.5011    2.3966    1.5371 H         1 <0>         0.0278
     52 H19         3.1657    3.1890    0.0043 H         1 <0>         0.0278
     53 H20         5.0059    1.5280   -1.9807 H         1 <0>         0.0238
     54 H21         3.3573    2.1087   -2.0950 H         1 <0>         0.0238
     55 H22         3.7023    0.3837   -2.2770 H         1 <0>         0.0238
     56 H23        -1.9961   -2.2755    2.2500 H         1 <0>         0.2108
     57 H24         5.2070    4.0369    1.1078 H         1 <0>         0.0345
     58 H25         5.6004    3.3459   -0.4777 H         1 <0>         0.0345
     59 H26         0.3052    1.9521   -1.7522 H         1 <0>         0.2098
     60 H27         6.8542    0.0705    1.2804 H         1 <0>         0.0652
     61 H28        -2.9720    0.1401   -0.9655 H         1 <0>         0.0779
     62 H29        -2.8924    0.1097    0.8286 H         1 <0>         0.0779
     63 H30        -7.0981   -0.2069   -0.6828 H         1 <0>         0.0383
     64 H31        -7.0111   -0.1493    1.0926 H         1 <0>         0.0383
     65 H32        -7.4239    2.3013    1.0473 H         1 <0>         0.0383
     66 H33        -7.4569    2.2749   -0.7323 H         1 <0>         0.0383
     67 H34       -10.8704    2.2620    0.2277 H         1 <0>         0.2951
@<TRIPOS>BOND
     1    1   13 1
     2    1   56 1
     3    2   16 1
     4    2   59 1
     5    3   25 2
     6    4   29 1
     7    4   30 1
     8    5   28 2
     9    6   30 2
    10    7   33 1
    11    7   67 1
    12    8   33 2
    13    9   10 1
    14    9   13 1
    15    9   14 1
    16    9   20 1
    17   10   11 1
    18   10   17 1
    19   10   34 1
    20   11   12 1
    21   11   19 1
    22   11   35 1
    23   12   15 1
    24   12   16 1
    25   12   36 1
    26   13   18 1
    27   13   25 1
    28   14   16 1
    29   14   37 1
    30   14   38 1
    31   15   21 1
    32   15   23 1
    33   15   24 1
    34   16   39 1
    35   17   18 1
    36   17   40 1
    37   17   41 1
    38   18   42 1
    39   18   43 1
    40   19   22 1
    41   19   44 1
    42   19   45 1
    43   20   46 1
    44   20   47 1
    45   20   48 1
    46   21   22 1
    47   21   27 2
    48   22   49 1
    49   22   50 1
    50   23   26 1
    51   23   51 1
    52   23   52 1
    53   24   53 1
    54   24   54 1
    55   24   55 1
    56   25   29 1
    57   26   28 1
    58   26   57 1
    59   26   58 1
    60   27   28 1
    61   27   60 1
    62   29   61 1
    63   29   62 1
    64   30   31 1
    65   31   32 1
    66   31   63 1
    67   31   64 1
    68   32   33 1
    69   32   65 1
    70   32   66 1
