@<TRIPOS>MOLECULE
DB14596
   63    66     0     0     0
SMALL
USER_CHARGES

@<TRIPOS>ATOM
      1 Cl1        -3.9124   -3.0267   -3.3411 Cl        1 <0>        -0.0811
      2 O1         -2.5758    0.4164   -0.0320 O.3       1 <0>        -0.4151
      3 O2          1.7394   -2.2180   -1.3353 O.3       1 <0>        -0.3914
      4 O3         -3.1304   -1.9858   -1.0775 O.3       1 <0>        -0.4458
      5 O4         -3.8628   -2.3821    1.0772 O.2       1 <0>        -0.2462
      6 O5         -4.0840    1.9799   -0.4410 O.3       1 <0>        -0.4340
      7 O6          5.9363    3.3913   -1.6550 O.2       1 <0>        -0.2879
      8 O7         -4.5796    0.3439    1.1052 O.2       1 <0>        -0.2028
      9 C1         -0.6719   -1.1096    0.2766 C.3       1 <0>         0.0239
     10 C2          0.0661   -0.0653    1.1435 C.3       1 <0>        -0.0280
     11 C3          1.5963   -0.1704    1.0626 C.3       1 <0>        -0.0310
     12 C4          2.0389    0.0518   -0.4266 C.3       1 <0>         0.0007
     13 C5         -2.1386   -0.7566    0.6479 C.3       1 <0>         0.2179
     14 C6         -0.2658   -0.8634   -1.1902 C.3       1 <0>        -0.0167
     15 C7          1.2637   -0.8815   -1.4098 C.3       1 <0>         0.0600
     16 C8         -0.6117   -0.1930    2.5053 C.3       1 <0>        -0.0451
     17 C9          3.6112    0.0727   -0.5851 C.3       1 <0>         0.0131
     18 C10        -2.0895   -0.4802    2.1678 C.3       1 <0>        -0.0012
     19 C11         2.2559    0.8582    1.9986 C.3       1 <0>        -0.0458
     20 C12        -0.3694   -2.5761    0.6923 C.3       1 <0>        -0.0550
     21 C13         3.7727    0.8808    1.8572 C.3       1 <0>        -0.0302
     22 C14         4.1579    1.0963    0.4162 C.2       1 <0>        -0.0559
     23 C15        -3.1466   -1.8010    0.2732 C.2       1 <0>         0.3533
     24 C16         4.2903   -1.2864   -0.3024 C.3       1 <0>        -0.0520
     25 C17         3.9860    0.4454   -2.0122 C.2       1 <0>        -0.0701
     26 C18         4.8996    2.1591    0.0670 C.2       1 <0>        -0.0149
     27 C19         4.7225    1.5029   -2.3668 C.2       1 <0>        -0.0180
     28 C20         5.2441    2.4279   -1.3440 C.2       1 <0>         0.1787
     29 C21        -3.8246    0.8622    0.2934 C.2       1 <0>         0.5112
     30 C22        -4.0513   -2.9604   -1.5744 C.3       1 <0>         0.1660
     31 C23        -5.3645    2.5806   -0.2210 C.3       1 <0>         0.0931
     32 C24        -5.4947    3.8020   -1.1058 C.3       1 <0>        -0.0305
     33 H1         -0.1912    0.9405    0.7716 H         1 <0>         0.0310
     34 H2          1.9144   -1.1638    1.3948 H         1 <0>         0.0308
     35 H3          1.6972    1.0688   -0.6862 H         1 <0>         0.0340
     36 H4         -0.7305   -1.6155   -1.8380 H         1 <0>         0.0297
     37 H5         -0.6347    0.1142   -1.5240 H         1 <0>         0.0297
     38 H6          1.4439   -0.5444   -2.4366 H         1 <0>         0.0596
     39 H7         -0.1845   -1.0151    3.0906 H         1 <0>         0.0270
     40 H8         -0.5117    0.7218    3.0986 H         1 <0>         0.0270
     41 H9         -2.6718    0.3869    2.4919 H         1 <0>         0.0310
     42 H10        -2.4210   -1.3339    2.7694 H         1 <0>         0.0310
     43 H11         1.8576    1.8601    1.7895 H         1 <0>         0.0271
     44 H12         2.0046    0.6314    3.0416 H         1 <0>         0.0271
     45 H13        -0.7993   -3.2791   -0.0305 H         1 <0>         0.0237
     46 H14         0.6979   -2.7952    0.7557 H         1 <0>         0.0237
     47 H15        -0.7904   -2.8304    1.6707 H         1 <0>         0.0237
     48 H16         4.1770    1.6704    2.5024 H         1 <0>         0.0310
     49 H17         4.2010   -0.0597    2.2218 H         1 <0>         0.0310
     50 H18         3.9235   -1.7578    0.6143 H         1 <0>         0.0241
     51 H19         5.3764   -1.1693   -0.1905 H         1 <0>         0.0241
     52 H20         4.1457   -2.0027   -1.1185 H         1 <0>         0.0241
     53 H21         3.6522   -0.2152   -2.8094 H         1 <0>         0.0582
     54 H22         1.2598   -2.7415   -1.9995 H         1 <0>         0.2098
     55 H23         5.2615    2.8701    0.8023 H         1 <0>         0.0655
     56 H24         4.9635    1.7001   -3.4049 H         1 <0>         0.0653
     57 H25        -3.8089   -3.9495   -1.1747 H         1 <0>         0.0872
     58 H26        -5.0781   -2.6787   -1.3232 H         1 <0>         0.0872
     59 H27        -5.4540    2.8740    0.8309 H         1 <0>         0.0696
     60 H28        -6.1524    1.8599   -0.4662 H         1 <0>         0.0696
     61 H29        -5.3888    3.5270   -2.1603 H         1 <0>         0.0262
     62 H30        -4.7019    4.5244   -0.8846 H         1 <0>         0.0262
     63 H31        -6.4643    4.2870   -0.9628 H         1 <0>         0.0262
@<TRIPOS>BOND
     1    1   30 1
     2    2   13 1
     3    2   29 1
     4    3   15 1
     5    3   54 1
     6    4   23 1
     7    4   30 1
     8    5   23 2
     9    6   29 1
    10    6   31 1
    11    7   28 2
    12    8   29 2
    13    9   10 1
    14    9   13 1
    15    9   14 1
    16    9   20 1
    17   10   11 1
    18   10   16 1
    19   10   33 1
    20   11   12 1
    21   11   19 1
    22   11   34 1
    23   12   15 1
    24   12   17 1
    25   12   35 1
    26   13   18 1
    27   13   23 1
    28   14   15 1
    29   14   36 1
    30   14   37 1
    31   15   38 1
    32   16   18 1
    33   16   39 1
    34   16   40 1
    35   17   22 1
    36   17   24 1
    37   17   25 1
    38   18   41 1
    39   18   42 1
    40   19   21 1
    41   19   43 1
    42   19   44 1
    43   20   45 1
    44   20   46 1
    45   20   47 1
    46   21   22 1
    47   21   48 1
    48   21   49 1
    49   22   26 2
    50   24   50 1
    51   24   51 1
    52   24   52 1
    53   25   27 2
    54   25   53 1
    55   26   28 1
    56   26   55 1
    57   27   28 1
    58   27   56 1
    59   30   57 1
    60   30   58 1
    61   31   32 1
    62   31   59 1
    63   31   60 1
    64   32   61 1
    65   32   62 1
    66   32   63 1
