@<TRIPOS>MOLECULE
DB14089
   16    15     0     0     0
SMALL
USER_CHARGES

@<TRIPOS>ATOM
      1 S1         -0.0198    0.9572    1.9311 S.3       1 <0>        -0.1621
      2 S2         -0.0512    1.6262   -1.5736 S.3       1 <0>        -0.1621
      3 O1         -2.4040   -1.0085   -0.5628 O.3       1 <0>        -0.4798
      4 O2          2.1056   -1.3493   -0.0314 O.3       1 <0>        -0.4798
      5 O3         -2.7768    0.7413    0.8360 O.2       1 <0>        -0.2497
      6 O4          2.6354    0.7523   -0.6915 O.2       1 <0>        -0.2497
      7 C1         -0.5122   -0.1644    0.5703 C.3       1 <0>         0.1209
      8 C2          0.2932    0.0387   -0.7269 C.3       1 <0>         0.1209
      9 C3         -2.0064   -0.0583    0.3249 C.2       1 <0>         0.3192
     10 C4          1.7888   -0.1084   -0.4910 C.2       1 <0>         0.3192
     11 H1         -0.3339   -1.1736    0.9616 H         1 <0>         0.0540
     12 H2          0.0205   -0.7325   -1.4576 H         1 <0>         0.0540
     13 H3          1.2174    0.4687    2.1019 H         1 <0>         0.1025
     14 H4          0.3411    2.4237   -0.5692 H         1 <0>         0.1025
     15 H5         -3.3684   -0.9648   -0.7369 H         1 <0>         0.2951
     16 H6          3.0705   -1.4485    0.1154 H         1 <0>         0.2951
@<TRIPOS>BOND
     1    1    7 1
     2    1   13 1
     3    2    8 1
     4    2   14 1
     5    3    9 1
     6    3   15 1
     7    4   10 1
     8    4   16 1
     9    5    9 2
    10    6   10 2
    11    7    8 1
    12    7    9 1
    13    7   11 1
    14    8   10 1
    15    8   12 1
