@<TRIPOS>MOLECULE
DB14840
   54    57     0     0     0
SMALL
USER_CHARGES

@<TRIPOS>ATOM
      1 Br1         1.7379   -4.4593   -1.0445 Br        1 <0>        -0.0496
      2 F1         -3.4480   -4.4207   -1.2431 F         1 <0>        -0.2035
      3 O1          1.1860   -1.9203    2.0426 O.2       1 <0>        -0.2670
      4 O2         -3.1504    0.4553    0.0601 O.2       1 <0>        -0.2522
      5 N1          2.8890   -0.5234    1.2967 N.am      1 <0>        -0.3077
      6 N2          4.6112    1.5566   -1.9821 N.ar      1 <0>        -0.2398
      7 N3          6.3010    2.4298   -0.5537 N.pl3     1 <0>        -0.3321
      8 N4         -3.6843   -1.7450   -0.5421 N.am      1 <0>        -0.2667
      9 N5         -5.3767   -0.2104   -0.2028 N.am      1 <0>        -0.2692
     10 C1          3.4905    0.1863    0.2106 C.ar      1 <0>         0.0567
     11 C2          1.1637   -1.3934   -0.2563 C.2       1 <0>         0.0484
     12 C3          2.9180    0.0888   -1.0588 C.ar      1 <0>         0.0175
     13 C4          1.7419   -1.3088    1.1277 C.2       1 <0>         0.2595
     14 C5          3.4883   -0.4182    2.6250 C.3       1 <0>         0.0239
     15 C6          1.7337   -0.7277   -1.2706 C.2       1 <0>        -0.0382
     16 C7         -0.0251   -2.2236   -0.5234 C.ar      1 <0>         0.0032
     17 C8          4.6326    0.9795    0.3666 C.ar      1 <0>         0.0023
     18 C9          3.5102    0.7852   -2.1086 C.ar      1 <0>         0.0388
     19 C10         5.1441    1.6333   -0.7456 C.ar      1 <0>         0.1204
     20 C11         4.7382   -1.2663    2.7382 C.3       1 <0>        -0.0470
     21 C12        -1.2758   -1.6158   -0.4129 C.ar      1 <0>        -0.0287
     22 C13         0.0672   -3.5702   -0.8757 C.ar      1 <0>         0.0286
     23 C14        -2.4341   -2.3548   -0.6543 C.ar      1 <0>         0.0708
     24 C15        -1.0910   -4.3089   -1.1172 C.ar      1 <0>        -0.0100
     25 C16        -2.3417   -3.7013   -1.0065 C.ar      1 <0>         0.1456
     26 C17         6.9233    3.1514   -1.6150 C.3       1 <0>        -0.0011
     27 C18        -3.9862   -0.4044   -0.1996 C.2       1 <0>         0.3082
     28 C19        -6.0911    0.9770    0.0830 C.ar      1 <0>         0.0348
     29 C20        -7.4849    0.9819    0.0296 C.ar      1 <0>        -0.0404
     30 C21        -5.4017    2.1428    0.4168 C.ar      1 <0>        -0.0404
     31 C22        -8.1896    2.1526    0.3102 C.ar      1 <0>        -0.0600
     32 C23        -6.1064    3.3136    0.6975 C.ar      1 <0>        -0.0600
     33 C24        -7.5003    3.3184    0.6443 C.ar      1 <0>        -0.0616
     34 H1          3.6837    0.6325    2.8658 H         1 <0>         0.0490
     35 H2          2.7703   -0.7611    3.3790 H         1 <0>         0.0490
     36 H3          1.3325   -0.7816   -2.2790 H         1 <0>         0.0632
     37 H4          5.1219    1.1175    1.3239 H         1 <0>         0.0673
     38 H5          3.1059    0.7433   -3.1160 H         1 <0>         0.0837
     39 H6          4.5028   -2.3219    2.5623 H         1 <0>         0.0247
     40 H7          5.1582   -1.1817    3.7456 H         1 <0>         0.0247
     41 H8          5.5210   -0.9892    2.0282 H         1 <0>         0.0247
     42 H9         -1.2829   -0.5710   -0.1352 H         1 <0>         0.0643
     43 H10        -1.0403   -5.3591   -1.3934 H         1 <0>         0.0658
     44 H11         6.8205    2.2902    0.3063 H         1 <0>         0.1471
     45 H12        -4.4806   -2.3482   -0.7329 H         1 <0>         0.1565
     46 H13         7.2728    2.4762   -2.4029 H         1 <0>         0.0426
     47 H14         7.7920    3.6981   -1.2352 H         1 <0>         0.0426
     48 H15         6.2369    3.8832   -2.0531 H         1 <0>         0.0426
     49 H16        -5.9494   -1.0170   -0.4382 H         1 <0>         0.1564
     50 H17        -8.0344    0.0804   -0.2294 H         1 <0>         0.0636
     51 H18        -4.3258    2.2206    0.4791 H         1 <0>         0.0636
     52 H19        -9.2748    2.1566    0.2687 H         1 <0>         0.0618
     53 H20        -5.5710    4.2223    0.9575 H         1 <0>         0.0618
     54 H21        -8.0489    4.2299    0.8628 H         1 <0>         0.0618
@<TRIPOS>BOND
     1    1   22 1
     2    2   25 1
     3    3   13 2
     4    4   27 2
     5    5   10 1
     6    5   13 am
     7    5   14 1
     8    6   18 ar
     9    6   19 ar
    10    7   19 1
    11    7   26 1
    12    7   44 1
    13    8   23 1
    14    8   27 am
    15    8   45 1
    16    9   27 am
    17    9   28 1
    18    9   49 1
    19   10   12 ar
    20   10   17 ar
    21   11   13 1
    22   11   15 2
    23   11   16 1
    24   12   15 1
    25   12   18 ar
    26   14   20 1
    27   14   34 1
    28   14   35 1
    29   15   36 1
    30   16   21 ar
    31   16   22 ar
    32   17   19 ar
    33   17   37 1
    34   18   38 1
    35   20   39 1
    36   20   40 1
    37   20   41 1
    38   21   23 ar
    39   21   42 1
    40   22   24 ar
    41   23   25 ar
    42   24   25 ar
    43   24   43 1
    44   26   46 1
    45   26   47 1
    46   26   48 1
    47   28   29 ar
    48   28   30 ar
    49   29   31 ar
    50   29   50 1
    51   30   32 ar
    52   30   51 1
    53   31   33 ar
    54   31   52 1
    55   32   33 ar
    56   32   53 1
    57   33   54 1
