@<TRIPOS>MOLECULE
DB14141
   16    16     0     0     0
SMALL
USER_CHARGES

@<TRIPOS>ATOM
      1 N1         -2.8052   -0.0000   -0.0001 N.pl3     1 <0>        -0.3580
      2 N2          2.8052    0.0000   -0.0004 N.pl3     1 <0>        -0.3580
      3 C1         -1.3949   -0.0000   -0.0001 C.ar      1 <0>         0.0247
      4 C2          1.3949    0.0000   -0.0000 C.ar      1 <0>         0.0247
      5 C3         -0.6974   -1.2079   -0.0002 C.ar      1 <0>        -0.0393
      6 C4          0.6975   -1.2079   -0.0002 C.ar      1 <0>        -0.0393
      7 C5         -0.6975    1.2080   -0.0001 C.ar      1 <0>        -0.0393
      8 C6          0.6974    1.2079   -0.0002 C.ar      1 <0>        -0.0393
      9 H1         -1.2294   -2.1559   -0.0002 H         1 <0>         0.0636
     10 H2          1.2295   -2.1559   -0.0002 H         1 <0>         0.0636
     11 H3         -1.2295    2.1559   -0.0002 H         1 <0>         0.0636
     12 H4          1.2295    2.1559   -0.0003 H         1 <0>         0.0636
     13 H5         -3.3114   -0.8755    0.0005 H         1 <0>         0.1423
     14 H6         -3.3114    0.8755    0.0005 H         1 <0>         0.1423
     15 H7          3.3114    0.8755    0.0007 H         1 <0>         0.1423
     16 H8          3.3114   -0.8755    0.0006 H         1 <0>         0.1423
@<TRIPOS>BOND
     1    1    3 1
     2    1   13 1
     3    1   14 1
     4    2    4 1
     5    2   15 1
     6    2   16 1
     7    3    5 ar
     8    3    7 ar
     9    4    6 ar
    10    4    8 ar
    11    5    6 ar
    12    5    9 1
    13    6   10 1
    14    7    8 ar
    15    7   11 1
    16    8   12 1
