@<TRIPOS>MOLECULE
DB14644
   68    71     0     0     0
SMALL
USER_CHARGES

@<TRIPOS>ATOM
      1 O1         -1.3826   -1.3129    1.9062 O.3       1 <0>        -0.3804
      2 O2          0.9223    1.7821   -1.6121 O.3       1 <0>        -0.3914
      3 O3         -3.0700   -2.2615   -0.9132 O.2       1 <0>        -0.2907
      4 O4         -4.8642   -0.5456    0.1144 O.3       1 <0>        -0.4568
      5 O5          6.6435    3.0117    2.2105 O.2       1 <0>        -0.2879
      6 O6         -5.5417    1.1245    1.5535 O.2       1 <0>        -0.2508
      7 O7        -10.3837    1.9287    0.0108 O.3       1 <0>        -0.4806
      8 O8         -9.6083    0.2096   -1.2565 O.2       1 <0>        -0.2510
      9 C1         -0.2531   -0.7209   -0.1968 C.3       1 <0>         0.0092
     10 C2          1.0616   -1.3702    0.2892 C.3       1 <0>        -0.0292
     11 C3          2.3224   -0.7196   -0.3007 C.3       1 <0>        -0.0308
     12 C4          2.3577    0.7876    0.1250 C.3       1 <0>         0.0007
     13 C5         -1.2737   -1.6434    0.5247 C.3       1 <0>         0.1326
     14 C6         -0.2348    0.7531    0.2540 C.3       1 <0>        -0.0178
     15 C7          1.0210    1.5190   -0.2195 C.3       1 <0>         0.0600
     16 C8          0.8241   -2.8611    0.0629 C.3       1 <0>        -0.0463
     17 C9          3.6840    1.5076   -0.3431 C.3       1 <0>         0.0133
     18 C10        -0.6720   -3.0599    0.3821 C.3       1 <0>        -0.0161
     19 C11         3.5835   -1.4632    0.1739 C.3       1 <0>        -0.0432
     20 C12         4.8784   -0.7855   -0.2938 C.3       1 <0>        -0.0212
     21 C13        -0.4565   -0.8231   -1.7341 C.3       1 <0>        -0.0562
     22 C14         4.8726    0.6689    0.1695 C.2       1 <0>        -0.0531
     23 C15        -2.6777   -1.5471    0.0081 C.2       1 <0>         0.2022
     24 C16         3.8140    1.6533   -1.8771 C.3       1 <0>        -0.0520
     25 C17         3.7172    2.9250    0.2114 C.2       1 <0>        -0.0701
     26 C18         6.0790   -1.6356    0.1448 C.3       1 <0>        -0.0587
     27 C19         5.8109    1.1738    0.9899 C.2       1 <0>        -0.0146
     28 C20        -3.5715   -0.5279    0.6820 C.3       1 <0>         0.1530
     29 C21         4.6520    3.4178    1.0277 C.2       1 <0>        -0.0180
     30 C22         5.7720    2.5716    1.4681 C.2       1 <0>         0.1787
     31 C23        -5.7731    0.3402    0.6440 C.2       1 <0>         0.3080
     32 C24        -7.0993    0.1907   -0.0701 C.3       1 <0>         0.0550
     33 C25        -8.1458    1.1961    0.3949 C.3       1 <0>         0.0548
     34 C26        -9.4312    1.0469   -0.3811 C.2       1 <0>         0.3052
     35 H1          1.1326   -1.2387    1.3818 H         1 <0>         0.0310
     36 H2          2.2999   -0.7978   -1.3917 H         1 <0>         0.0308
     37 H3          2.3919    0.7822    1.2283 H         1 <0>         0.0340
     38 H4         -0.2678    0.8150    1.3485 H         1 <0>         0.0297
     39 H5         -1.1271    1.2651   -0.1238 H         1 <0>         0.0297
     40 H6          0.9994    2.4942    0.2780 H         1 <0>         0.0596
     41 H7          1.4515   -3.4810    0.7115 H         1 <0>         0.0269
     42 H8          1.0348   -3.1462   -0.9742 H         1 <0>         0.0269
     43 H9         -1.1280   -3.6519   -0.4184 H         1 <0>         0.0297
     44 H10        -0.7761   -3.6358    1.3091 H         1 <0>         0.0297
     45 H11         3.5612   -2.4920   -0.2071 H         1 <0>         0.0274
     46 H12         3.5792   -1.5353    1.2703 H         1 <0>         0.0274
     47 H13         4.8979   -0.7904   -1.3907 H         1 <0>         0.0343
     48 H14        -1.2801   -0.1773   -2.0594 H         1 <0>         0.0236
     49 H15         0.4215   -0.5592   -2.3202 H         1 <0>         0.0236
     50 H16        -0.7079   -1.8407   -2.0521 H         1 <0>         0.0236
     51 H17         3.1754    2.4471   -2.2800 H         1 <0>         0.0241
     52 H18         4.8406    1.9249   -2.1574 H         1 <0>         0.0241
     53 H19         3.5738    0.7315   -2.4147 H         1 <0>         0.0241
     54 H20         2.9280    3.6056   -0.1010 H         1 <0>         0.0582
     55 H21        -1.8388   -2.0410    2.3622 H         1 <0>         0.2108
     56 H22         1.3829    1.0887   -2.1058 H         1 <0>         0.2098
     57 H23         6.0096   -2.6438   -0.2791 H         1 <0>         0.0235
     58 H24         7.0208   -1.2003   -0.2065 H         1 <0>         0.0235
     59 H25         6.1278   -1.7395    1.2345 H         1 <0>         0.0235
     60 H26         6.6412    0.5834    1.3594 H         1 <0>         0.0656
     61 H27        -3.1354    0.4665    0.5571 H         1 <0>         0.0779
     62 H28        -3.6691   -0.7752    1.7435 H         1 <0>         0.0779
     63 H29         4.6163    4.4441    1.3739 H         1 <0>         0.0653
     64 H30        -7.4616   -0.8300    0.1002 H         1 <0>         0.0383
     65 H31        -6.9173    0.3184   -1.1440 H         1 <0>         0.0383
     66 H32        -7.7743    2.2171    0.2531 H         1 <0>         0.0383
     67 H33        -8.3625    1.0466    1.4585 H         1 <0>         0.0383
     68 H34       -11.2174    1.8153   -0.4935 H         1 <0>         0.2951
@<TRIPOS>BOND
     1    1   13 1
     2    1   55 1
     3    2   15 1
     4    2   56 1
     5    3   23 2
     6    4   28 1
     7    4   31 1
     8    5   30 2
     9    6   31 2
    10    7   34 1
    11    7   68 1
    12    8   34 2
    13    9   10 1
    14    9   13 1
    15    9   14 1
    16    9   21 1
    17   10   11 1
    18   10   16 1
    19   10   35 1
    20   11   12 1
    21   11   19 1
    22   11   36 1
    23   12   15 1
    24   12   17 1
    25   12   37 1
    26   13   18 1
    27   13   23 1
    28   14   15 1
    29   14   38 1
    30   14   39 1
    31   15   40 1
    32   16   18 1
    33   16   41 1
    34   16   42 1
    35   17   22 1
    36   17   24 1
    37   17   25 1
    38   18   43 1
    39   18   44 1
    40   19   20 1
    41   19   45 1
    42   19   46 1
    43   20   22 1
    44   20   26 1
    45   20   47 1
    46   21   48 1
    47   21   49 1
    48   21   50 1
    49   22   27 2
    50   23   28 1
    51   24   51 1
    52   24   52 1
    53   24   53 1
    54   25   29 2
    55   25   54 1
    56   26   57 1
    57   26   58 1
    58   26   59 1
    59   27   30 1
    60   27   60 1
    61   28   61 1
    62   28   62 1
    63   29   30 1
    64   29   63 1
    65   31   32 1
    66   32   33 1
    67   32   64 1
    68   32   65 1
    69   33   34 1
    70   33   66 1
    71   33   67 1
