@<TRIPOS>MOLECULE
DB14176
   29    30     0     0     0
SMALL
USER_CHARGES

@<TRIPOS>ATOM
      1 O1          0.2119    0.7461    0.0001 O.3       1 <0>        -0.4564
      2 O2         -5.4722   -1.9216    0.0004 O.3       1 <0>        -0.5068
      3 O3         -1.0501    2.6602    0.0002 O.2       1 <0>        -0.2450
      4 C1          2.5624    0.5965    0.0001 C.ar      1 <0>        -0.0103
      5 C2          1.4022    1.5424    0.0001 C.3       1 <0>         0.1178
      6 C3         -2.1450    0.5602   -0.0002 C.ar      1 <0>         0.0592
      7 C4          3.0992    0.1594    1.2080 C.ar      1 <0>        -0.0554
      8 C5          3.0988    0.1593   -1.2080 C.ar      1 <0>        -0.0554
      9 C6         -0.9791    1.4295    0.0002 C.2       1 <0>         0.3395
     10 C7         -3.4265    1.1113   -0.0004 C.ar      1 <0>        -0.0443
     11 C8         -1.9817   -0.8250    0.0001 C.ar      1 <0>        -0.0443
     12 C9          4.1805   -0.7218    1.2079 C.ar      1 <0>        -0.0614
     13 C10         4.1801   -0.7221   -1.2081 C.ar      1 <0>        -0.0614
     14 C11        -4.5445    0.2773   -0.0003 C.ar      1 <0>        -0.0194
     15 C12        -3.0999   -1.6591    0.0001 C.ar      1 <0>        -0.0194
     16 C13         4.7208   -1.1626   -0.0002 C.ar      1 <0>        -0.0617
     17 C14        -4.3812   -1.1080    0.0001 C.ar      1 <0>         0.1169
     18 H1          1.4242    2.1832    0.8899 H         1 <0>         0.0749
     19 H2          1.4241    2.1832   -0.8896 H         1 <0>         0.0749
     20 H3          2.6851    0.4943    2.1552 H         1 <0>         0.0621
     21 H4          2.6845    0.4942   -2.1551 H         1 <0>         0.0621
     22 H5         -3.5770    2.1877   -0.0006 H         1 <0>         0.0627
     23 H6         -1.0016   -1.2937    0.0004 H         1 <0>         0.0627
     24 H7          4.6013   -1.0652    2.1482 H         1 <0>         0.0618
     25 H8          4.6004   -1.0658   -2.1487 H         1 <0>         0.0618
     26 H9         -5.5375    0.7191   -0.0002 H         1 <0>         0.0654
     27 H10        -2.9666   -2.7376    0.0002 H         1 <0>         0.0654
     28 H11         5.5624   -1.8491   -0.0002 H         1 <0>         0.0618
     29 H12        -6.2749   -1.3722    0.0005 H         1 <0>         0.2921
@<TRIPOS>BOND
     1    1    5 1
     2    1    9 1
     3    2   17 1
     4    2   29 1
     5    3    9 2
     6    4    5 1
     7    4    7 ar
     8    4    8 ar
     9    5   18 1
    10    5   19 1
    11    6    9 1
    12    6   10 ar
    13    6   11 ar
    14    7   12 ar
    15    7   20 1
    16    8   13 ar
    17    8   21 1
    18   10   14 ar
    19   10   22 1
    20   11   15 ar
    21   11   23 1
    22   12   16 ar
    23   12   24 1
    24   13   16 ar
    25   13   25 1
    26   14   17 ar
    27   14   26 1
    28   15   17 ar
    29   15   27 1
    30   16   28 1
