@<TRIPOS>MOLECULE
DB14219
   15    14     0     0     0
SMALL
USER_CHARGES

@<TRIPOS>ATOM
      1 O1         -1.9259   -0.6233    0.0009 O.3       1 <0>        -0.4649
      2 O2         -1.0901    1.5308    0.0022 O.2       1 <0>        -0.2456
      3 O3          3.8301    0.6222   -0.0015 O.3       1 <0>        -0.4775
      4 O4          3.0107   -1.5002   -0.0004 O.2       1 <0>        -0.2458
      5 C1          0.3561   -0.3896    0.0023 C.2       1 <0>         0.0292
      6 C2         -0.9440    0.3186    0.0026 C.2       1 <0>         0.3319
      7 C3          1.4901    0.3219    0.0008 C.2       1 <0>         0.0291
      8 C4         -3.2645   -0.1163   -0.0013 C.3       1 <0>         0.0820
      9 C5          2.8341   -0.2906   -0.0009 C.2       1 <0>         0.3298
     10 H1          0.3573   -1.4740    0.0027 H         1 <0>         0.0691
     11 H2          1.4683    1.4083    0.0003 H         1 <0>         0.0691
     12 H3         -3.4421    0.4795   -0.9018 H         1 <0>         0.0661
     13 H4         -3.4452    0.4797    0.8985 H         1 <0>         0.0661
     14 H5         -3.9506   -0.9675   -0.0024 H         1 <0>         0.0661
     15 H6          4.7159    0.2005   -0.0020 H         1 <0>         0.2954
@<TRIPOS>BOND
     1    1    6 1
     2    1    8 1
     3    2    6 2
     4    3    9 1
     5    3   15 1
     6    4    9 2
     7    5    6 1
     8    5    7 2
     9    5   10 1
    10    7    9 1
    11    7   11 1
    12    8   12 1
    13    8   13 1
    14    8   14 1
