@<TRIPOS>MOLECULE
DB15566
   59    62     0     0     0
SMALL
USER_CHARGES

@<TRIPOS>ATOM
      1 O1         -2.2273   -0.9056    1.8785 O.3       1 <0>        -0.3804
      2 O2          0.6427    1.7265   -1.5991 O.3       1 <0>        -0.3914
      3 O3         -4.0239   -1.5219   -0.9659 O.2       1 <0>        -0.2907
      4 O4         -5.4874    0.4900    0.0489 O.3       1 <0>        -0.4570
      5 O5          6.5112    1.8234    2.2392 O.2       1 <0>        -0.2879
      6 O6         -5.8739    2.2556    1.4878 O.2       1 <0>        -0.2512
      7 C1         -0.9827   -0.5239   -0.2081 C.3       1 <0>         0.0092
      8 C2          0.1851   -1.4043    0.2894 C.3       1 <0>        -0.0292
      9 C3          1.5506   -0.9946   -0.2822 C.3       1 <0>        -0.0311
     10 C4          1.8546    0.4836    0.1487 C.3       1 <0>         0.0007
     11 C5         -2.1635   -1.2466    0.4967 C.3       1 <0>         0.1326
     12 C6         -0.7010    0.9209    0.2507 C.3       1 <0>        -0.0178
     13 C7         -0.3176   -2.8261    0.0529 C.3       1 <0>        -0.0463
     14 C8          0.6780    1.4470   -0.2067 C.3       1 <0>         0.0600
     15 C9          3.2948    0.9524   -0.3025 C.3       1 <0>         0.0131
     16 C10        -1.8288   -2.7489    0.3540 C.3       1 <0>        -0.0161
     17 C11         2.6489   -1.9546    0.2093 C.3       1 <0>        -0.0458
     18 C12        -1.1824   -0.5826   -1.7481 C.3       1 <0>        -0.0562
     19 C13         4.0407   -1.5138   -0.2265 C.3       1 <0>        -0.0302
     20 C14         4.2952   -0.0922    0.2047 C.2       1 <0>        -0.0559
     21 C15        -3.5194   -0.8939   -0.0363 C.2       1 <0>         0.2022
     22 C16         3.4650    1.0777   -1.8333 C.3       1 <0>        -0.0520
     23 C17         3.5984    2.3286    0.2721 C.2       1 <0>        -0.0701
     24 C18         5.3217    0.1924    1.0213 C.2       1 <0>        -0.0149
     25 C19        -4.2207    0.2695    0.6322 C.3       1 <0>         0.1530
     26 C20         4.6176    2.6183    1.0868 C.2       1 <0>        -0.0180
     27 C21         5.5616    1.5667    1.5069 C.2       1 <0>         0.1787
     28 C22        -6.2229    1.5231    0.5721 C.2       1 <0>         0.3043
     29 C23        -7.5360    1.6384   -0.1411 C.3       1 <0>         0.0332
     30 H1          0.2654   -1.2908    1.3834 H         1 <0>         0.0310
     31 H2          1.5255   -1.0599   -1.3747 H         1 <0>         0.0308
     32 H3          1.8749    0.4699    1.2521 H         1 <0>         0.0340
     33 H4         -0.7314    0.9823    1.3454 H         1 <0>         0.0297
     34 H5         -1.4846    1.5865   -0.1280 H         1 <0>         0.0297
     35 H6          0.1775   -3.5508    0.7072 H         1 <0>         0.0269
     36 H7         -0.1481   -3.1445   -0.9817 H         1 <0>         0.0269
     37 H8          0.8387    2.4059    0.2985 H         1 <0>         0.0596
     38 H9         -2.3751   -3.2447   -0.4554 H         1 <0>         0.0297
     39 H10        -2.0482   -3.2991    1.2764 H         1 <0>         0.0297
     40 H11         2.4644   -2.9643   -0.1763 H         1 <0>         0.0271
     41 H12         2.6178   -2.0252    1.3048 H         1 <0>         0.0271
     42 H13        -1.9370    0.1456   -2.0668 H         1 <0>         0.0236
     43 H14        -0.2716   -0.3655   -2.3087 H         1 <0>         0.0236
     44 H15        -1.5187   -1.5659   -2.0927 H         1 <0>         0.0236
     45 H16         4.1412   -1.5978   -1.3145 H         1 <0>         0.0310
     46 H17         4.7804   -2.2010    0.2021 H         1 <0>         0.0310
     47 H18         2.9705    1.9681   -2.2366 H         1 <0>         0.0241
     48 H19         4.5247    1.1693   -2.1064 H         1 <0>         0.0241
     49 H20         3.0696    0.2121   -2.3732 H         1 <0>         0.0241
     50 H21         2.9514    3.1515   -0.0238 H         1 <0>         0.0582
     51 H22        -2.8144   -1.5393    2.3254 H         1 <0>         0.2108
     52 H23        -0.0721    2.3665   -1.7556 H         1 <0>         0.2098
     53 H24         6.0051   -0.5749    1.3694 H         1 <0>         0.0655
     54 H25        -3.6089    1.1679    0.5180 H         1 <0>         0.0779
     55 H26        -4.3753    0.0412    1.6912 H         1 <0>         0.0779
     56 H27         4.7822    3.6269    1.4477 H         1 <0>         0.0653
     57 H28        -8.1069    0.7150   -0.0166 H         1 <0>         0.0342
     58 H29        -7.3645    1.8455   -1.2004 H         1 <0>         0.0342
     59 H30        -8.1108    2.4643    0.2875 H         1 <0>         0.0342
@<TRIPOS>BOND
     1    1   11 1
     2    1   51 1
     3    2   14 1
     4    2   52 1
     5    3   21 2
     6    4   25 1
     7    4   28 1
     8    5   27 2
     9    6   28 2
    10    7    8 1
    11    7   11 1
    12    7   12 1
    13    7   18 1
    14    8    9 1
    15    8   13 1
    16    8   30 1
    17    9   10 1
    18    9   17 1
    19    9   31 1
    20   10   14 1
    21   10   15 1
    22   10   32 1
    23   11   16 1
    24   11   21 1
    25   12   14 1
    26   12   33 1
    27   12   34 1
    28   13   16 1
    29   13   35 1
    30   13   36 1
    31   14   37 1
    32   15   20 1
    33   15   22 1
    34   15   23 1
    35   16   38 1
    36   16   39 1
    37   17   19 1
    38   17   40 1
    39   17   41 1
    40   18   42 1
    41   18   43 1
    42   18   44 1
    43   19   20 1
    44   19   45 1
    45   19   46 1
    46   20   24 2
    47   21   25 1
    48   22   47 1
    49   22   48 1
    50   22   49 1
    51   23   26 2
    52   23   50 1
    53   24   27 1
    54   24   53 1
    55   25   54 1
    56   25   55 1
    57   26   27 1
    58   26   56 1
    59   28   29 1
    60   29   57 1
    61   29   58 1
    62   29   59 1
