@<TRIPOS>MOLECULE
DB15011
   77    81     0     0     0
SMALL
USER_CHARGES

@<TRIPOS>ATOM
      1 F1          1.7854    2.8782    1.9379 F         1 <0>        -0.2047
      2 F2         -0.6871   -4.8588    2.5970 F         1 <0>        -0.1659
      3 F3         -2.8406   -4.8954    2.2987 F         1 <0>        -0.1659
      4 F4         -1.6200   -6.5345    1.5724 F         1 <0>        -0.1659
      5 O1          0.6527   -1.2419   -3.3205 O.2       1 <0>        -0.2751
      6 O2          4.8478    2.7248    0.7330 O.2       1 <0>        -0.2699
      7 N1          3.4937    1.3778   -0.6303 N.am      1 <0>        -0.2896
      8 N2         -2.7091    3.0913   -0.1942 N.pl3     1 <0>        -0.3410
      9 N3          0.8982   -2.0360   -1.1192 N.am      1 <0>        -0.2852
     10 C1          2.3376    0.4430   -0.7626 C.3       1 <0>         0.0625
     11 C2          2.4725   -0.4770   -1.9994 C.3       1 <0>         0.0586
     12 C3          2.8906    0.2552   -3.2704 C.3       1 <0>        -0.0384
     13 C4          4.1705    1.0362   -3.0140 C.3       1 <0>        -0.0364
     14 C5          4.0142    2.0059   -1.8518 C.3       1 <0>         0.0156
     15 C6         -3.6174    2.8256    0.9009 C.3       1 <0>         0.0206
     16 C7         -4.4729    1.5996    0.6064 C.3       1 <0>        -0.0346
     17 C8         -4.6537    3.9360    1.0235 C.3       1 <0>        -0.0346
     18 C9          0.9921    1.1495   -0.6107 C.ar      1 <0>        -0.0262
     19 C10        -5.7034    3.6106   -0.0368 C.3       1 <0>        -0.0513
     20 C11        -5.5916    2.1090   -0.2998 C.3       1 <0>        -0.0513
     21 C12         1.2346   -1.2901   -2.2417 C.2       1 <0>         0.2224
     22 C13         4.0033    1.8396    0.5966 C.2       1 <0>         0.2502
     23 C14        -1.4664    2.4390   -0.3341 C.ar      1 <0>         0.0273
     24 C15         0.1628    0.8462    0.4692 C.ar      1 <0>        -0.0550
     25 C16         0.5918    2.0973   -1.5526 C.ar      1 <0>        -0.0550
     26 C17        -1.0662    1.4911    0.6078 C.ar      1 <0>        -0.0405
     27 C18        -0.6375    2.7421   -1.4143 C.ar      1 <0>        -0.0405
     28 C19         3.5036    1.2402    1.8400 C.ar      1 <0>         0.0749
     29 C20        -0.1982   -2.9178   -0.9681 C.ar      1 <0>         0.0339
     30 C21         4.1250    0.1231    2.3983 C.ar      1 <0>        -0.0356
     31 C22         2.3905    1.8037    2.4640 C.ar      1 <0>         0.1357
     32 C23        -0.3892   -3.5922    0.2379 C.ar      1 <0>        -0.0286
     33 C24         3.6335   -0.4305    3.5806 C.ar      1 <0>        -0.0579
     34 C25        -1.0871   -3.1136   -2.0252 C.ar      1 <0>        -0.0402
     35 C26         5.3174   -0.5019    1.7500 C.3       1 <0>        -0.0389
     36 C27         1.8990    1.2503    3.6463 C.ar      1 <0>        -0.0257
     37 C28         2.5207    0.1333    4.2047 C.ar      1 <0>        -0.0588
     38 C29        -1.4692   -4.4623    0.3871 C.ar      1 <0>         0.0595
     39 C30        -2.1669   -3.9839   -1.8762 C.ar      1 <0>        -0.0566
     40 C31        -2.3582   -4.6582   -0.6700 C.ar      1 <0>        -0.0387
     41 C32        -1.6527   -5.1747    1.6869 C.3       1 <0>         0.4177
     42 C33        -3.5220   -5.5840   -0.5336 C.3       1 <0>        -0.0392
     43 H1          2.4226   -0.2214    0.1038 H         1 <0>         0.0558
     44 H2          3.2777   -1.1961   -1.7809 H         1 <0>         0.0416
     45 H3          2.1068    0.9166   -3.6502 H         1 <0>         0.0274
     46 H4          3.0789   -0.4704   -4.0726 H         1 <0>         0.0274
     47 H5          4.9838    0.3337   -2.7916 H         1 <0>         0.0281
     48 H6          4.4609    1.5840   -3.9175 H         1 <0>         0.0281
     49 H7          4.9866    2.4678   -1.6466 H         1 <0>         0.0465
     50 H8          3.3397    2.8255   -2.1180 H         1 <0>         0.0465
     51 H9         -3.0831    2.7498    1.8537 H         1 <0>         0.0497
     52 H10        -4.2357    4.9388    0.8880 H         1 <0>         0.0283
     53 H11        -5.1216    3.8983    2.0151 H         1 <0>         0.0283
     54 H12        -4.9113    1.2275    1.5408 H         1 <0>         0.0283
     55 H13        -3.9289    0.7701    0.1443 H         1 <0>         0.0283
     56 H14        -5.3405    1.9342   -1.3524 H         1 <0>         0.0266
     57 H15        -6.5338    1.5894   -0.0979 H         1 <0>         0.0266
     58 H16        -6.7069    3.8911    0.2987 H         1 <0>         0.0266
     59 H17        -5.5008    4.1661   -0.9599 H         1 <0>         0.0266
     60 H18        -2.9912    3.7222   -0.9364 H         1 <0>         0.1463
     61 H19         0.4412    0.0871    1.1947 H         1 <0>         0.0621
     62 H20         1.2076    2.3698   -2.3992 H         1 <0>         0.0621
     63 H21        -1.6786    1.2065    1.4568 H         1 <0>         0.0636
     64 H22        -0.9373    3.4805   -2.1535 H         1 <0>         0.0636
     65 H23         1.5096   -1.9881   -0.3086 H         1 <0>         0.1548
     66 H24         0.3091   -3.4321    1.0559 H         1 <0>         0.0642
     67 H25         4.1047   -1.3012    4.0287 H         1 <0>         0.0620
     68 H26        -1.0041   -2.6273   -2.9869 H         1 <0>         0.0636
     69 H27         5.7041   -1.3437    2.3347 H         1 <0>         0.0278
     70 H28         6.1300    0.2257    1.6549 H         1 <0>         0.0278
     71 H29         5.0572   -0.8865    0.7582 H         1 <0>         0.0278
     72 H30         1.0318    1.6888    4.1311 H         1 <0>         0.0646
     73 H31         2.1374   -0.2978    5.1249 H         1 <0>         0.0619
     74 H32        -2.8506   -4.1256   -2.7092 H         1 <0>         0.0621
     75 H33        -4.1177   -5.6211   -1.4526 H         1 <0>         0.0278
     76 H34        -4.1907   -5.2526    0.2667 H         1 <0>         0.0278
     77 H35        -3.1846   -6.6053   -0.3310 H         1 <0>         0.0278
@<TRIPOS>BOND
     1    1   31 1
     2    2   41 1
     3    3   41 1
     4    4   41 1
     5    5   21 2
     6    6   22 2
     7    7   10 1
     8    7   14 1
     9    7   22 am
    10    8   15 1
    11    8   23 1
    12    8   60 1
    13    9   21 am
    14    9   29 1
    15    9   65 1
    16   10   11 1
    17   10   18 1
    18   10   43 1
    19   11   12 1
    20   11   21 1
    21   11   44 1
    22   12   13 1
    23   12   45 1
    24   12   46 1
    25   13   14 1
    26   13   47 1
    27   13   48 1
    28   14   49 1
    29   14   50 1
    30   15   16 1
    31   15   17 1
    32   15   51 1
    33   16   20 1
    34   16   54 1
    35   16   55 1
    36   17   19 1
    37   17   52 1
    38   17   53 1
    39   18   24 ar
    40   18   25 ar
    41   19   20 1
    42   19   58 1
    43   19   59 1
    44   20   56 1
    45   20   57 1
    46   22   28 1
    47   23   26 ar
    48   23   27 ar
    49   24   26 ar
    50   24   61 1
    51   25   27 ar
    52   25   62 1
    53   26   63 1
    54   27   64 1
    55   28   30 ar
    56   28   31 ar
    57   29   32 ar
    58   29   34 ar
    59   30   33 ar
    60   30   35 1
    61   31   36 ar
    62   32   38 ar
    63   32   66 1
    64   33   37 ar
    65   33   67 1
    66   34   39 ar
    67   34   68 1
    68   35   69 1
    69   35   70 1
    70   35   71 1
    71   36   37 ar
    72   36   72 1
    73   37   73 1
    74   38   40 ar
    75   38   41 1
    76   39   40 ar
    77   39   74 1
    78   40   42 1
    79   42   75 1
    80   42   76 1
    81   42   77 1
