@<TRIPOS>MOLECULE
DB15690
   44    47     0     0     0
SMALL
USER_CHARGES

@<TRIPOS>ATOM
      1 F1         -4.5656    1.4888   -1.1927 F         1 <0>        -0.2428
      2 O1         -4.5615   -1.3499    0.2515 O.3       1 <0>        -0.3884
      3 O2          6.3176    0.0013    0.4466 O.3       1 <0>        -0.5068
      4 C1         -2.1851   -0.7132    0.1309 C.3       1 <0>        -0.0002
      5 C2         -1.5450    0.5875   -0.3984 C.3       1 <0>        -0.0271
      6 C3         -0.0806    0.7208    0.0194 C.3       1 <0>        -0.0304
      7 C4          0.7217   -0.4718   -0.5837 C.3       1 <0>        -0.0125
      8 C5         -3.6192   -0.5124   -0.3922 C.3       1 <0>         0.0917
      9 C6         -1.4348   -1.8989   -0.4876 C.3       1 <0>        -0.0444
     10 C7         -2.5415    1.6683    0.0171 C.3       1 <0>        -0.0156
     11 C8          0.0778   -1.8319   -0.2021 C.3       1 <0>        -0.0454
     12 C9         -3.9064    0.9745   -0.1196 C.3       1 <0>         0.1275
     13 C10         0.5480    2.0328   -0.4540 C.3       1 <0>        -0.0454
     14 C11        -2.1871   -0.8570    1.6743 C.3       1 <0>        -0.0569
     15 C12         2.2110   -0.3508   -0.2718 C.ar      1 <0>        -0.0406
     16 C13         1.9571    2.1669    0.1156 C.3       1 <0>        -0.0270
     17 C14         2.7838    0.9083    0.0130 C.ar      1 <0>        -0.0405
     18 C15         3.0634   -1.4667   -0.3468 C.ar      1 <0>        -0.0546
     19 C16         4.1637    1.0096    0.2636 C.ar      1 <0>        -0.0167
     20 C17         4.4339   -1.3503   -0.1042 C.ar      1 <0>        -0.0199
     21 C18         4.9838   -0.1132    0.2055 C.ar      1 <0>         0.1171
     22 H1         -1.5626    0.5647   -1.5011 H         1 <0>         0.0311
     23 H2         -0.0082    0.6971    1.1143 H         1 <0>         0.0310
     24 H3          0.6547   -0.3964   -1.6802 H         1 <0>         0.0352
     25 H4         -3.6790   -0.7124   -1.4693 H         1 <0>         0.0627
     26 H5         -1.5803   -1.9069   -1.5758 H         1 <0>         0.0272
     27 H6         -1.8379   -2.8491   -0.1172 H         1 <0>         0.0272
     28 H7         -2.3708    1.9742    1.0551 H         1 <0>         0.0297
     29 H8         -2.4723    2.5564   -0.6184 H         1 <0>         0.0297
     30 H9          0.2691   -2.0488    0.8558 H         1 <0>         0.0271
     31 H10         0.5463   -2.6448   -0.7689 H         1 <0>         0.0271
     32 H11        -4.5351    1.1386    0.7609 H         1 <0>         0.0677
     33 H12        -0.0457    2.8964   -0.1340 H         1 <0>         0.0271
     34 H13         0.5840    2.0588   -1.5507 H         1 <0>         0.0271
     35 H14        -1.1807   -0.8541    2.1008 H         1 <0>         0.0236
     36 H15        -2.7452   -0.0556    2.1686 H         1 <0>         0.0236
     37 H16        -2.6531   -1.8035    1.9722 H         1 <0>         0.0236
     38 H17         1.8886    2.4380    1.1770 H         1 <0>         0.0313
     39 H18         2.4665    2.9891   -0.4014 H         1 <0>         0.0313
     40 H19        -5.4437   -1.0983   -0.0709 H         1 <0>         0.2099
     41 H20         2.6811   -2.4501   -0.6033 H         1 <0>         0.0622
     42 H21         4.5996    1.9770    0.5048 H         1 <0>         0.0657
     43 H22         5.0597   -2.2369   -0.1651 H         1 <0>         0.0654
     44 H23         6.7297   -0.8757    0.3628 H         1 <0>         0.2921
@<TRIPOS>BOND
     1    1   12 1
     2    2    8 1
     3    2   40 1
     4    3   21 1
     5    3   44 1
     6    4    5 1
     7    4    8 1
     8    4    9 1
     9    4   14 1
    10    5    6 1
    11    5   10 1
    12    5   22 1
    13    6    7 1
    14    6   13 1
    15    6   23 1
    16    7   11 1
    17    7   15 1
    18    7   24 1
    19    8   12 1
    20    8   25 1
    21    9   11 1
    22    9   26 1
    23    9   27 1
    24   10   12 1
    25   10   28 1
    26   10   29 1
    27   11   30 1
    28   11   31 1
    29   12   32 1
    30   13   16 1
    31   13   33 1
    32   13   34 1
    33   14   35 1
    34   14   36 1
    35   14   37 1
    36   15   17 ar
    37   15   18 ar
    38   16   17 1
    39   16   38 1
    40   16   39 1
    41   17   19 ar
    42   18   20 ar
    43   18   41 1
    44   19   21 ar
    45   19   42 1
    46   20   21 ar
    47   20   43 1
