@<TRIPOS>MOLECULE
DB15685
   70    75     0     0     0
SMALL
USER_CHARGES

@<TRIPOS>ATOM
      1 O1         -8.0050    4.0847   -1.3858 O.3       1 <0>        -0.4796
      2 O2          5.7967    1.2537    0.0871 O.3       1 <0>        -0.4876
      3 O3          9.1269    2.7673    0.0967 O.3       1 <0>        -0.3858
      4 N1         -4.8709   -0.8921    0.8395 N.3       1 <0>        -0.2892
      5 N2         -2.2458   -1.7333    0.2875 N.pl3     1 <0>        -0.3122
      6 N3         -0.3607   -1.3241   -1.0778 N.ar      1 <0>        -0.2397
      7 N4         -6.8637    3.0211    0.3323 N.ar      1 <0>        -0.2210
      8 N5          5.5344   -2.2869   -0.7947 N.pl3     1 <0>        -0.2345
      9 N6          6.1744   -3.4279   -1.1686 N.2       1 <0>        -0.1734
     10 N7          1.6744   -5.0688   -1.0734 N.1       1 <0>        -0.1908
     11 C1         -4.3818   -2.1316    1.5179 C.3       1 <0>         0.0282
     12 C2         -4.6298   -1.6165   -0.4462 C.3       1 <0>         0.0282
     13 C3         -4.8662   -2.9529    0.2984 C.3       1 <0>        -0.0187
     14 C4         -2.8462   -2.0839    1.5905 C.3       1 <0>         0.0292
     15 C5         -3.1534   -1.4459   -0.8419 C.3       1 <0>         0.0292
     16 C6         -6.2890   -0.6445    1.0833 C.3       1 <0>         0.0261
     17 C7         -0.8620   -1.6479    0.1352 C.ar      1 <0>         0.1213
     18 C8         -6.7663    0.6063    0.3943 C.ar      1 <0>        -0.0150
     19 C9         -0.0840   -1.9047    1.2526 C.ar      1 <0>        -0.0211
     20 C10        -7.5220    0.5385   -0.7710 C.ar      1 <0>        -0.0509
     21 C11        -6.4667    1.8605    0.9009 C.ar      1 <0>         0.0358
     22 C12         1.2974   -1.8241    1.1164 C.ar      1 <0>        -0.0493
     23 C13         0.9863   -1.2554   -1.1719 C.ar      1 <0>         0.0375
     24 C14         1.8508   -1.4939   -0.1157 C.ar      1 <0>         0.0025
     25 C15        -7.9488    1.7109   -1.3852 C.ar      1 <0>         0.0003
     26 C16        -7.5964    2.9157   -0.7990 C.ar      1 <0>         0.2144
     27 C17         3.3153   -1.3992   -0.2938 C.2       1 <0>         0.0138
     28 C18         4.1549   -2.4997   -0.6824 C.2       1 <0>         0.0922
     29 C19         3.9011   -0.2021   -0.0521 C.2       1 <0>        -0.0086
     30 C20         5.3341   -0.0100   -0.1823 C.2       1 <0>         0.1393
     31 C21         3.9324   -3.8178   -1.0089 C.2       1 <0>         0.0974
     32 C22         6.1140   -1.0407   -0.5438 C.2       1 <0>         0.0714
     33 C23        -7.6162    5.2930   -0.7434 C.3       1 <0>         0.0804
     34 C24         5.2045   -4.3330   -1.2937 C.2       1 <0>         0.0678
     35 C25         7.7062    2.7375    0.2558 C.3       1 <0>         0.0943
     36 C26         7.2029    1.3260   -0.0707 C.3       1 <0>         0.1177
     37 C27         7.1218    3.7861   -0.6913 C.3       1 <0>        -0.0331
     38 C28         7.3828    3.0941    1.7078 C.3       1 <0>        -0.0331
     39 C29         2.6893   -4.5066   -1.0443 C.1       1 <0>         0.1029
     40 H1         -5.3145   -1.4059   -1.2732 H         1 <0>         0.0479
     41 H2         -4.8492   -2.3779    2.4770 H         1 <0>         0.0479
     42 H3         -4.2511   -3.8061   -0.0033 H         1 <0>         0.0296
     43 H4         -5.9071   -3.2907    0.3437 H         1 <0>         0.0296
     44 H5         -2.9269   -2.1236   -1.6742 H         1 <0>         0.0479
     45 H6         -2.5607   -1.3437    2.3490 H         1 <0>         0.0479
     46 H7         -2.4930   -3.0713    1.9133 H         1 <0>         0.0479
     47 H8         -2.9888   -0.4195   -1.1933 H         1 <0>         0.0479
     48 H9         -6.4433   -0.5023    2.1618 H         1 <0>         0.0476
     49 H10        -6.9472   -1.4790    0.8115 H         1 <0>         0.0476
     50 H11        -0.4710   -2.1649    2.2302 H         1 <0>         0.0652
     51 H12        -7.7848   -0.4200   -1.2098 H         1 <0>         0.0623
     52 H13        -5.8806    1.9785    1.8071 H         1 <0>         0.0834
     53 H14         1.9307   -2.0219    1.9777 H         1 <0>         0.0625
     54 H15         1.3551   -0.9940   -2.1595 H         1 <0>         0.0836
     55 H16        -8.5387    1.6751   -2.2945 H         1 <0>         0.0671
     56 H17         3.3151    0.6618    0.2522 H         1 <0>         0.0661
     57 H18         7.1876   -1.0251   -0.6737 H         1 <0>         0.0868
     58 H19        -6.5257    5.3907   -0.7171 H         1 <0>         0.0660
     59 H20        -8.0381    5.3551    0.2655 H         1 <0>         0.0660
     60 H21        -8.0151    6.1279   -1.3271 H         1 <0>         0.0660
     61 H22         7.4999    1.1013   -1.1054 H         1 <0>         0.0725
     62 H23         7.7191    0.6320    0.6085 H         1 <0>         0.0725
     63 H24         5.4739   -5.3371   -1.5904 H         1 <0>         0.0861
     64 H25         7.8374    2.3726    2.3964 H         1 <0>         0.0258
     65 H26         7.7991    4.0734    1.9715 H         1 <0>         0.0258
     66 H27         6.3045    3.1214    1.8949 H         1 <0>         0.0258
     67 H28         7.3846    3.5587   -1.7308 H         1 <0>         0.0258
     68 H29         7.5327    4.7800   -0.4793 H         1 <0>         0.0258
     69 H30         6.0313    3.8435   -0.6148 H         1 <0>         0.0258
     70 H31         9.4391    3.6590    0.3272 H         1 <0>         0.2103
@<TRIPOS>BOND
     1    1   26 1
     2    1   33 1
     3    2   30 1
     4    2   36 1
     5    3   35 1
     6    3   70 1
     7    4   11 1
     8    4   12 1
     9    4   16 1
    10    5   14 1
    11    5   15 1
    12    5   17 1
    13    6   17 ar
    14    6   23 ar
    15    7   21 ar
    16    7   26 ar
    17    8    9 1
    18    8   28 1
    19    8   32 2
    20    9   34 2
    21   10   39 3
    22   11   13 1
    23   11   14 1
    24   11   41 1
    25   12   13 1
    26   12   15 1
    27   12   40 1
    28   13   42 1
    29   13   43 1
    30   14   45 1
    31   14   46 1
    32   15   44 1
    33   15   47 1
    34   16   18 1
    35   16   48 1
    36   16   49 1
    37   17   19 ar
    38   18   20 ar
    39   18   21 ar
    40   19   22 ar
    41   19   50 1
    42   20   25 ar
    43   20   51 1
    44   21   52 1
    45   22   24 ar
    46   22   53 1
    47   23   24 ar
    48   23   54 1
    49   24   27 1
    50   25   26 ar
    51   25   55 1
    52   27   28 2
    53   27   29 1
    54   28   31 2
    55   29   30 2
    56   29   56 1
    57   30   32 1
    58   31   34 1
    59   31   39 1
    60   32   57 1
    61   33   58 1
    62   33   59 1
    63   33   60 1
    64   34   63 1
    65   35   36 1
    66   35   37 1
    67   35   38 1
    68   36   61 1
    69   36   62 1
    70   37   67 1
    71   37   68 1
    72   37   69 1
    73   38   64 1
    74   38   65 1
    75   38   66 1
