@<TRIPOS>MOLECULE
DB15982
   67    71     0     0     0
SMALL
USER_CHARGES

@<TRIPOS>ATOM
      1 F1          0.9668   -0.3622   -3.7657 F         1 <0>        -0.2035
      2 F2          6.4454   -4.6985    0.2917 F         1 <0>        -0.1644
      3 F3          6.3883   -4.0063    2.3462 F         1 <0>        -0.1644
      4 F4          4.9295   -5.4611    1.6512 F         1 <0>        -0.1644
      5 O1          0.7478   -1.4663    1.1732 O.2       1 <0>        -0.2682
      6 N1         -3.0084    0.8292    1.0432 N.3       1 <0>        -0.3054
      7 N2          1.2340   -1.0529   -1.0898 N.am      1 <0>        -0.2779
      8 N3          4.0504   -1.3260    0.2354 N.pl3     1 <0>        -0.2271
      9 N4          5.1530   -2.0445    0.5074 N.2       1 <0>        -0.1617
     10 N5         -3.7509   -5.4343    1.1946 N.1       1 <0>        -0.1909
     11 N6          1.0439    3.0659   -0.8661 N.3       1 <0>        -0.3261
     12 C1         -2.1359    2.7272    2.2830 C.3       1 <0>        -0.0284
     13 C2         -1.0936    3.8070    2.3752 C.3       1 <0>        -0.0488
     14 C3         -0.7688    2.4090    2.8219 C.3       1 <0>        -0.0488
     15 C4         -2.5598    2.2021    0.9497 C.3       1 <0>        -0.0004
     16 C5         -3.4475    0.3478   -0.2893 C.3       1 <0>         0.0586
     17 C6         -2.2507    0.1540   -1.2275 C.ar      1 <0>        -0.0242
     18 C7         -4.3350   -0.8492   -0.2260 C.ar      1 <0>        -0.0249
     19 C8         -1.0523   -0.3611   -0.7330 C.ar      1 <0>        -0.0327
     20 C9         -2.3601    0.4930   -2.5763 C.ar      1 <0>        -0.0539
     21 C10        -3.8387   -2.0628    0.2501 C.ar      1 <0>        -0.0394
     22 C11        -5.6631   -0.7539   -0.6420 C.ar      1 <0>        -0.0567
     23 C12         0.0365   -0.5370   -1.5871 C.ar      1 <0>         0.0696
     24 C13        -1.2713    0.3174   -3.4303 C.ar      1 <0>        -0.0243
     25 C14        -4.6703   -3.1810    0.3100 C.ar      1 <0>         0.0521
     26 C15        -6.4947   -1.8721   -0.5817 C.ar      1 <0>        -0.0602
     27 C16        -0.0731   -0.1977   -2.9356 C.ar      1 <0>         0.1445
     28 C17        -5.9983   -3.0858   -0.1059 C.ar      1 <0>        -0.0443
     29 C18         1.5149   -1.4746    0.2163 C.2       1 <0>         0.2668
     30 C19         2.8855   -2.0077    0.4327 C.2       1 <0>         0.1298
     31 C20        -4.1629   -4.4244    0.7982 C.1       1 <0>         0.0992
     32 C21         4.1722   -0.0078   -0.2045 C.ar      1 <0>         0.0665
     33 C22         3.2517   -3.2596    0.8631 C.2       1 <0>         0.0006
     34 C23         4.6587   -3.2249    0.8904 C.2       1 <0>         0.1663
     35 C24         3.1755    0.9215    0.0938 C.ar      1 <0>        -0.0318
     36 C25         3.2970    2.2398   -0.3454 C.ar      1 <0>        -0.0318
     37 C26         5.2904    0.3814   -0.9421 C.ar      1 <0>        -0.0362
     38 C27         5.5756   -4.3086    1.2807 C.3       1 <0>         0.4360
     39 C28         4.4153    2.6290   -1.0829 C.ar      1 <0>        -0.0572
     40 C29         5.4120    1.6999   -1.3810 C.ar      1 <0>        -0.0595
     41 C30         2.2317    3.2337   -0.0270 C.3       1 <0>         0.0186
     42 H1         -2.9568    2.7734    2.9901 H         1 <0>         0.0313
     43 H2         -1.2189    4.5632    3.1408 H         1 <0>         0.0268
     44 H3         -0.6368    4.1689    1.4638 H         1 <0>         0.0268
     45 H4         -0.0915    1.8281    2.2079 H         1 <0>         0.0268
     46 H5         -0.6763    2.2280    3.8857 H         1 <0>         0.0268
     47 H6         -1.7284    2.3055    0.2444 H         1 <0>         0.0427
     48 H7         -3.3689    2.8479    0.5859 H         1 <0>         0.0427
     49 H8         -3.8039    0.7911    1.6818 H         1 <0>         0.1228
     50 H9         -4.0487    1.1601   -0.7250 H         1 <0>         0.0560
     51 H10        -1.0139   -0.6073    0.3168 H         1 <0>         0.0640
     52 H11        -3.2882    0.8938   -2.9751 H         1 <0>         0.0622
     53 H12        -2.8108   -2.1481    0.5926 H         1 <0>         0.0634
     54 H13        -6.0681    0.1829   -1.0154 H         1 <0>         0.0621
     55 H14        -1.3562    0.5813   -4.4802 H         1 <0>         0.0647
     56 H15        -7.5289   -1.7979   -0.9053 H         1 <0>         0.0618
     57 H16        -6.6591   -3.9485   -0.0651 H         1 <0>         0.0630
     58 H17         1.9800   -1.1485   -1.7759 H         1 <0>         0.1553
     59 H18         2.5942   -4.0778    1.1200 H         1 <0>         0.0662
     60 H19         2.3385    0.6956    0.7451 H         1 <0>         0.0642
     61 H20         6.0788   -0.3214   -1.2001 H         1 <0>         0.0639
     62 H21         4.5227    3.6519   -1.4340 H         1 <0>         0.0621
     63 H22         6.2812    2.0024   -1.9577 H         1 <0>         0.0618
     64 H23         1.9507    3.1522    1.0297 H         1 <0>         0.0471
     65 H24         2.6105    4.2539   -0.1599 H         1 <0>         0.0471
     66 H25         0.3660    3.7915   -0.6374 H         1 <0>         0.1185
     67 H26         0.5921    2.1804   -0.6416 H         1 <0>         0.1185
@<TRIPOS>BOND
     1    1   27 1
     2    2   38 1
     3    3   38 1
     4    4   38 1
     5    5   29 2
     6    6   15 1
     7    6   16 1
     8    6   49 1
     9    7   23 1
    10    7   29 am
    11    7   58 1
    12    8    9 1
    13    8   30 2
    14    8   32 1
    15    9   34 1
    16   10   31 3
    17   11   41 1
    18   11   66 1
    19   11   67 1
    20   12   13 1
    21   12   14 1
    22   12   15 1
    23   12   42 1
    24   13   14 1
    25   13   45 1
    26   13   46 1
    27   14   43 1
    28   14   44 1
    29   15   47 1
    30   15   48 1
    31   16   17 1
    32   16   18 1
    33   16   50 1
    34   17   19 ar
    35   17   20 ar
    36   18   21 ar
    37   18   22 ar
    38   19   23 ar
    39   19   51 1
    40   20   24 ar
    41   20   52 1
    42   21   25 ar
    43   21   53 1
    44   22   26 ar
    45   22   54 1
    46   23   27 ar
    47   24   27 ar
    48   24   55 1
    49   25   28 ar
    50   25   31 1
    51   26   28 ar
    52   26   56 1
    53   28   57 1
    54   29   30 1
    55   30   33 1
    56   32   35 ar
    57   32   37 ar
    58   33   34 2
    59   33   59 1
    60   34   38 1
    61   35   36 ar
    62   35   60 1
    63   36   39 ar
    64   36   41 1
    65   37   40 ar
    66   37   61 1
    67   39   40 ar
    68   39   62 1
    69   40   63 1
    70   41   64 1
    71   41   65 1
