@<TRIPOS>MOLECULE
DB15305
   53    58     0     0     0
SMALL
USER_CHARGES

@<TRIPOS>ATOM
      1 O1         -0.5134   -2.6284    0.7038 O.2       1 <0>        -0.2672
      2 N1         -7.0131    0.3704    0.1311 N.3       1 <0>        -0.3076
      3 N2         -4.2250    0.5731   -0.5095 N.pl3     1 <0>        -0.3258
      4 N3         -0.7170   -0.4082   -0.0396 N.am      1 <0>        -0.2664
      5 N4          1.2688    0.8734   -0.3820 N.2       1 <0>        -0.2274
      6 N5          5.5161   -0.9063   -0.1190 N.pl3     1 <0>        -0.2193
      7 N6          4.1844   -1.1678   -0.1757 N.2       1 <0>        -0.1635
      8 N7          7.4356    0.1998    0.1137 N.2       1 <0>        -0.2313
      9 C1         -6.1758   -0.8369   -0.0901 C.3       1 <0>         0.0350
     10 C2         -6.8735   -2.1745   -0.1990 C.3       1 <0>        -0.0315
     11 C3         -6.0702   -1.8541    1.0263 C.3       1 <0>        -0.0315
     12 C4         -4.9628   -0.6081   -0.9689 C.3       1 <0>         0.0305
     13 C5         -6.1929    1.4636    0.6579 C.3       1 <0>         0.0122
     14 C6         -5.0312    1.7775   -0.2850 C.3       1 <0>         0.0248
     15 C7         -2.8611    0.5980   -0.4611 C.2       1 <0>         0.0468
     16 C8         -2.1067   -0.4486   -0.0838 C.cat     1 <0>         0.0356
     17 C9         -2.1840    1.8212   -0.8371 C.2       1 <0>        -0.0358
     18 C10        -0.8514    1.9243   -0.8161 C.2       1 <0>        -0.0169
     19 C11        -0.0261    0.7581   -0.3970 C.2       1 <0>         0.1410
     20 C12        -0.0215   -1.5530    0.3679 C.2       1 <0>         0.2590
     21 C13         1.9736   -0.2284    0.0117 C.2       1 <0>         0.0983
     22 C14         1.4534   -1.4031    0.3790 C.2       1 <0>         0.0309
     23 C15         3.4356   -0.1226    0.0374 C.2       1 <0>         0.1105
     24 C16         3.9526    1.2500    0.3209 C.2       1 <0>        -0.0261
     25 C17         5.2841    1.4440    0.3637 C.2       1 <0>        -0.0042
     26 C18         6.1213    0.3114    0.1331 C.cat     1 <0>         0.1572
     27 C19         6.5155   -1.8245   -0.3062 C.2       1 <0>         0.0525
     28 C20         7.6852   -1.1200   -0.1581 C.2       1 <0>         0.0587
     29 C21         5.8283    2.8198    0.6479 C.3       1 <0>        -0.0361
     30 C22         9.0660   -1.6157   -0.2574 C.3       1 <0>        -0.0208
     31 H1         -6.6103   -1.6727    1.9482 H         1 <0>         0.0284
     32 H2         -5.1311   -2.3767    1.1644 H         1 <0>         0.0284
     33 H3         -6.4736   -2.9137   -0.8830 H         1 <0>         0.0284
     34 H4         -7.9520   -2.2084   -0.0978 H         1 <0>         0.0284
     35 H5         -4.3427   -1.5104   -1.0121 H         1 <0>         0.0482
     36 H6         -5.3011   -0.4271   -1.9978 H         1 <0>         0.0482
     37 H7         -7.7690    0.1717    0.7858 H         1 <0>         0.1226
     38 H8         -5.8140    1.1986    1.6528 H         1 <0>         0.0440
     39 H9         -6.8186    2.3551    0.7735 H         1 <0>         0.0440
     40 H10        -4.4551    2.5828    0.1854 H         1 <0>         0.0476
     41 H11        -5.4038    2.1534   -1.2461 H         1 <0>         0.0476
     42 H12        -2.5585   -1.3841    0.2284 H         1 <0>         0.0833
     43 H13        -2.7534    2.6746   -1.1897 H         1 <0>         0.0638
     44 H14        -0.3465    2.8358   -1.1145 H         1 <0>         0.0655
     45 H15         2.0360   -2.2600    0.6967 H         1 <0>         0.0694
     46 H16         3.2625    2.0658    0.5035 H         1 <0>         0.0644
     47 H17         6.3084   -2.8639   -0.5211 H         1 <0>         0.0849
     48 H18         6.4507    3.1591   -0.1868 H         1 <0>         0.0279
     49 H19         6.4443    2.8023    1.5532 H         1 <0>         0.0279
     50 H20         5.0363    3.5614    0.7970 H         1 <0>         0.0279
     51 H21         9.6023   -1.0936   -1.0559 H         1 <0>         0.0293
     52 H22         9.6007   -1.4467    0.6824 H         1 <0>         0.0293
     53 H23         9.0940   -2.6880   -0.4752 H         1 <0>         0.0293
@<TRIPOS>BOND
     1    1   20 2
     2    2    9 1
     3    2   13 1
     4    2   37 1
     5    3   12 1
     6    3   14 1
     7    3   15 1
     8    4   16 1
     9    4   19 1
    10    4   20 am
    11    5   19 1
    12    5   21 2
    13    6    7 1
    14    6   26 1
    15    6   27 2
    16    7   23 2
    17    8   26 1
    18    8   28 2
    19    9   10 1
    20    9   11 1
    21    9   12 1
    22   10   11 1
    23   10   33 1
    24   10   34 1
    25   11   31 1
    26   11   32 1
    27   12   35 1
    28   12   36 1
    29   13   14 1
    30   13   38 1
    31   13   39 1
    32   14   40 1
    33   14   41 1
    34   15   16 1
    35   15   17 2
    36   16   42 1
    37   17   18 1
    38   17   43 1
    39   18   19 2
    40   18   44 1
    41   20   22 1
    42   21   22 1
    43   21   23 1
    44   22   45 1
    45   23   24 1
    46   24   25 2
    47   24   46 1
    48   25   26 1
    49   25   29 1
    50   27   28 1
    51   27   47 1
    52   28   30 1
    53   29   48 1
    54   29   49 1
    55   29   50 1
    56   30   51 1
    57   30   52 1
    58   30   53 1
