@<TRIPOS>MOLECULE
DB15444
   75    78     0     0     0
SMALL
USER_CHARGES

@<TRIPOS>ATOM
      1 S1         -5.1719    1.3573    1.4398 S.o2      1 <0>         0.0778
      2 F1         10.4825    1.2832   -0.0386 F         1 <0>        -0.1700
      3 F2          9.5727   -0.3930   -1.0935 F         1 <0>        -0.1700
      4 F3          9.5999   -0.3619    1.0860 F         1 <0>        -0.1700
      5 O1         -3.6918   -0.1592   -0.8298 O.2       1 <0>        -0.2685
      6 O2          5.6775    0.7327    0.0440 O.3       1 <0>        -0.4745
      7 O3         -5.9837    0.3124    0.8465 O.2       1 <0>        -0.1498
      8 O4         -5.3813    1.7607    2.8169 O.2       1 <0>        -0.1498
      9 N1         -1.7882   -2.3116    0.0637 N.pl3     1 <0>        -0.3090
     10 N2          0.3828   -1.4316    0.0623 N.ar      1 <0>        -0.2124
     11 N3          2.5474   -0.5299    0.0556 N.pl3     1 <0>        -0.2183
     12 N4         -3.5143    0.9857    1.2062 N.am      1 <0>        -0.1813
     13 N5          3.3845    0.5215    0.0560 N.2       1 <0>        -0.1273
     14 N6         -5.9089    4.2507   -1.0906 N.pl3     1 <0>        -0.2723
     15 N7         -5.0763    4.9529   -0.3033 N.2       1 <0>        -0.1747
     16 C1         -1.9201   -3.3711   -0.9682 C.3       1 <0>         0.0309
     17 C2         -3.2330   -4.0886   -0.5489 C.3       1 <0>        -0.0279
     18 C3         -3.2532   -3.9528    0.9671 C.3       1 <0>        -0.0261
     19 C4         -2.7410   -2.5269    1.1656 C.3       1 <0>         0.0167
     20 C5         -2.1203   -2.8218   -2.3848 C.3       1 <0>        -0.0438
     21 C6         -0.7525   -4.3662   -0.9025 C.3       1 <0>        -0.0438
     22 C7         -4.6271   -4.1862    1.5717 C.3       1 <0>        -0.0609
     23 C8         -0.9506   -1.2086    0.0695 C.ar      1 <0>         0.1363
     24 C9         -1.5263    0.0515    0.0800 C.ar      1 <0>         0.0782
     25 C10        -0.6791    1.1540    0.0836 C.ar      1 <0>        -0.0428
     26 C11         1.1748   -0.3359    0.0661 C.ar      1 <0>         0.1561
     27 C12        -2.9678    0.2599    0.0842 C.2       1 <0>         0.2664
     28 C13         0.6986    0.9652    0.0762 C.ar      1 <0>        -0.0166
     29 C14         8.1009    1.1374   -0.0068 C.3       1 <0>         0.0940
     30 C15         3.1802   -1.7382    0.0449 C.2       1 <0>         0.0366
     31 C16         6.9645    0.0946    0.0345 C.3       1 <0>         0.1046
     32 C17         4.5909   -0.0515    0.0449 C.2       1 <0>         0.2343
     33 C18         4.5248   -1.4577    0.0377 C.2       1 <0>         0.0196
     34 C19         9.4499    0.4108   -0.0133 C.3       1 <0>         0.3981
     35 C20         8.0200    2.0552    1.2255 C.3       1 <0>        -0.0484
     36 C21         7.9787    2.0007   -1.2746 C.3       1 <0>        -0.0484
     37 C22        -5.3373    2.8126    0.4511 C.2       1 <0>         0.1487
     38 C23        -4.7302    4.0691    0.6366 C.2       1 <0>         0.0865
     39 C24        -6.0987    2.9631   -0.6823 C.2       1 <0>         0.0521
     40 C25        -3.8028    4.4771    1.7071 C.3       1 <0>        -0.0187
     41 C26        -6.5062    4.8803   -2.2439 C.3       1 <0>         0.0302
     42 H1         -3.2688   -5.1347   -0.8719 H         1 <0>         0.0289
     43 H2         -4.1083   -3.5822   -0.9778 H         1 <0>         0.0289
     44 H3         -2.5440   -4.6623    1.4113 H         1 <0>         0.0314
     45 H4         -3.5847   -1.8356    1.1320 H         1 <0>         0.0467
     46 H5         -2.2502   -2.4283    2.1407 H         1 <0>         0.0467
     47 H6         -0.5858   -4.7380    0.1140 H         1 <0>         0.0250
     48 H7         -0.9296   -5.2279   -1.5554 H         1 <0>         0.0250
     49 H8         -2.3083   -3.6315   -3.0985 H         1 <0>         0.0250
     50 H9         -1.2298   -2.2794   -2.7218 H         1 <0>         0.0250
     51 H10         0.1804   -3.8934   -1.2287 H         1 <0>         0.0250
     52 H11        -2.9628   -2.1248   -2.4368 H         1 <0>         0.0250
     53 H12        -5.3734   -3.5010    1.1552 H         1 <0>         0.0233
     54 H13        -4.6011   -4.0369    2.6560 H         1 <0>         0.0233
     55 H14        -4.9646   -5.2094    1.3773 H         1 <0>         0.0233
     56 H15        -1.0772    2.1655    0.0867 H         1 <0>         0.0627
     57 H16         1.3355    1.8435    0.0777 H         1 <0>         0.0655
     58 H17        -2.8615    1.3356    1.9199 H         1 <0>         0.1769
     59 H18         2.6540   -2.6837    0.0432 H         1 <0>         0.0832
     60 H19         7.0613   -0.5232    0.9369 H         1 <0>         0.0705
     61 H20         7.0347   -0.5578   -0.8458 H         1 <0>         0.0705
     62 H21         5.3264   -2.1817    0.0293 H         1 <0>         0.0686
     63 H22         8.0095    1.3820   -2.1784 H         1 <0>         0.0239
     64 H23         7.0807    2.6187    1.2472 H         1 <0>         0.0239
     65 H24         7.0396    2.5647   -1.2891 H         1 <0>         0.0239
     66 H25         8.8393    2.7829    1.2316 H         1 <0>         0.0239
     67 H26         8.0825    1.4761    2.1536 H         1 <0>         0.0239
     68 H27         8.7979    2.7257   -1.3400 H         1 <0>         0.0239
     69 H28        -6.7426    2.2793   -1.2184 H         1 <0>         0.0846
     70 H29        -2.8997    3.8590    1.6936 H         1 <0>         0.0294
     71 H30        -3.4899    5.5210    1.5972 H         1 <0>         0.0294
     72 H31        -4.2763    4.3761    2.6887 H         1 <0>         0.0294
     73 H32        -7.0979    5.7331   -1.9021 H         1 <0>         0.0473
     74 H33        -5.7044    5.2098   -2.9094 H         1 <0>         0.0473
     75 H34        -7.1487    4.1627   -2.7600 H         1 <0>         0.0473
@<TRIPOS>BOND
     1    1    7 2
     2    1    8 2
     3    1   12 1
     4    1   37 1
     5    2   34 1
     6    3   34 1
     7    4   34 1
     8    5   27 2
     9    6   31 1
    10    6   32 1
    11    9   16 1
    12    9   19 1
    13    9   23 1
    14   10   23 ar
    15   10   26 ar
    16   11   13 1
    17   11   26 1
    18   11   30 2
    19   12   27 am
    20   12   58 1
    21   13   32 2
    22   14   15 1
    23   14   39 2
    24   14   41 1
    25   15   38 1
    26   16   17 1
    27   16   20 1
    28   16   21 1
    29   17   18 1
    30   17   42 1
    31   17   43 1
    32   18   19 1
    33   18   22 1
    34   18   44 1
    35   19   45 1
    36   19   46 1
    37   20   49 1
    38   20   50 1
    39   20   52 1
    40   21   47 1
    41   21   48 1
    42   21   51 1
    43   22   53 1
    44   22   54 1
    45   22   55 1
    46   23   24 ar
    47   24   25 ar
    48   24   27 1
    49   25   28 ar
    50   25   56 1
    51   26   28 ar
    52   28   57 1
    53   29   31 1
    54   29   34 1
    55   29   35 1
    56   29   36 1
    57   30   33 1
    58   30   59 1
    59   31   60 1
    60   31   61 1
    61   32   33 1
    62   33   62 1
    63   35   64 1
    64   35   66 1
    65   35   67 1
    66   36   63 1
    67   36   65 1
    68   36   68 1
    69   37   38 2
    70   37   39 1
    71   38   40 1
    72   39   69 1
    73   40   70 1
    74   40   71 1
    75   40   72 1
    76   41   73 1
    77   41   74 1
    78   41   75 1
