@<TRIPOS>MOLECULE
DB15779
   42    42     0     0     0
SMALL
USER_CHARGES

@<TRIPOS>ATOM
      1 Br1        -5.2033    2.4104   -0.8399 Br        1 <0>        -0.0497
      2 O1          0.4817    0.0994   -1.6014 O.2       1 <0>        -0.2741
      3 O2          4.5792   -2.9467   -0.1835 O.3       1 <0>        -0.4797
      4 O3          4.6549    2.5566    1.1306 O.3       1 <0>        -0.4797
      5 O4          4.1628   -1.9717   -2.1931 O.2       1 <0>        -0.2496
      6 O5          4.5026    2.4415   -1.1336 O.2       1 <0>        -0.2496
      7 N1          2.9764    0.0417   -0.4242 N.3       1 <0>        -0.2738
      8 N2         -0.4640    0.4878    0.5120 N.am      1 <0>        -0.2839
      9 C1         -1.8391    0.2310    0.2971 C.ar      1 <0>         0.0403
     10 C2          1.8934    0.7687    0.2371 C.3       1 <0>         0.0769
     11 C3         -2.6777    1.2646   -0.0933 C.ar      1 <0>        -0.0148
     12 C4         -2.3249   -1.0551    0.4824 C.ar      1 <0>        -0.0287
     13 C5          0.5707    0.4107   -0.4180 C.2       1 <0>         0.2313
     14 C6         -4.5332   -0.2824   -0.1205 C.ar      1 <0>        -0.0359
     15 C7         -4.0322    1.0066   -0.3032 C.ar      1 <0>         0.0255
     16 C8         -3.6793   -1.3133    0.2723 C.ar      1 <0>        -0.0531
     17 C9          2.7657   -1.4011   -0.3135 C.3       1 <0>         0.0976
     18 C10         4.2683    0.4152    0.1508 C.3       1 <0>         0.0976
     19 C11        -2.1181    2.6420   -0.2834 C.3       1 <0>        -0.0369
     20 C12        -1.4359   -2.1804    0.9031 C.3       1 <0>        -0.0379
     21 C13        -5.9758   -0.6134   -0.3323 C.3       1 <0>        -0.0386
     22 C14         3.8990   -2.1073   -1.0051 C.2       1 <0>         0.3190
     23 C15         4.4702    1.8931   -0.0391 C.2       1 <0>         0.3190
     24 H1          1.9873    1.8544    0.1192 H         1 <0>         0.0522
     25 H2          1.8665    0.5437    1.3110 H         1 <0>         0.0522
     26 H3         -0.2578    0.9021    1.4186 H         1 <0>         0.1549
     27 H4         -4.0675   -2.3191    0.4143 H         1 <0>         0.0624
     28 H5          1.8517   -1.7611   -0.7962 H         1 <0>         0.0542
     29 H6          2.7236   -1.7193    0.7362 H         1 <0>         0.0542
     30 H7          5.1222   -0.0623   -0.3423 H         1 <0>         0.0542
     31 H8          4.3242    0.1668    1.2183 H         1 <0>         0.0542
     32 H9         -2.1819    2.9332   -1.3375 H         1 <0>         0.0278
     33 H10        -2.6657    3.3670    0.3290 H         1 <0>         0.0278
     34 H11        -1.0703    2.7487    0.0095 H         1 <0>         0.0278
     35 H12        -0.8991   -1.9256    1.8231 H         1 <0>         0.0278
     36 H13        -2.0032   -3.0954    1.1061 H         1 <0>         0.0278
     37 H14        -0.7123   -2.4095    0.1142 H         1 <0>         0.0278
     38 H15        -6.6099   -0.0389    0.3509 H         1 <0>         0.0278
     39 H16        -6.2714   -0.4143   -1.3676 H         1 <0>         0.0278
     40 H17        -6.1834   -1.6724   -0.1418 H         1 <0>         0.0278
     41 H18         5.3035   -3.4118   -0.6541 H         1 <0>         0.2951
     42 H19         4.8021    3.5158    0.9876 H         1 <0>         0.2951
@<TRIPOS>BOND
     1    1   15 1
     2    2   13 2
     3    3   22 1
     4    3   41 1
     5    4   23 1
     6    4   42 1
     7    5   22 2
     8    6   23 2
     9    7   10 1
    10    7   17 1
    11    7   18 1
    12    8    9 1
    13    8   13 am
    14    8   26 1
    15    9   11 ar
    16    9   12 ar
    17   10   13 1
    18   10   24 1
    19   10   25 1
    20   11   15 ar
    21   11   19 1
    22   12   16 ar
    23   12   20 1
    24   14   15 ar
    25   14   16 ar
    26   14   21 1
    27   16   27 1
    28   17   22 1
    29   17   28 1
    30   17   29 1
    31   18   23 1
    32   18   30 1
    33   18   31 1
    34   19   32 1
    35   19   33 1
    36   19   34 1
    37   20   35 1
    38   20   36 1
    39   20   37 1
    40   21   38 1
    41   21   39 1
    42   21   40 1
