@<TRIPOS>MOLECULE
DB15467
   36    36     0     0     0
SMALL
USER_CHARGES

@<TRIPOS>ATOM
      1 O1          4.6711    0.2211   -0.1748 O.3       1 <0>        -0.3767
      2 O2          2.2418   -1.1279    0.1979 O.3       1 <0>        -0.4592
      3 O3         -5.9793    1.6450    0.2160 O.3       1 <0>        -0.4951
      4 O4          1.1036   -2.9212   -0.7109 O.2       1 <0>        -0.2456
      5 C1          4.6027   -0.9663    0.6054 C.3       1 <0>         0.0818
      6 C2          3.4787   -1.8390    0.0810 C.3       1 <0>         0.1160
      7 C3         -2.4895   -0.5580   -0.2263 C.ar      1 <0>        -0.0246
      8 C4          5.6961    1.0894    0.2875 C.3       1 <0>         0.0450
      9 C5         -3.7252   -1.2050   -0.2100 C.ar      1 <0>        -0.0511
     10 C6         -2.4268    0.8291   -0.0940 C.ar      1 <0>        -0.0511
     11 C7         -4.8354    0.9223    0.0712 C.ar      1 <0>         0.1201
     12 C8         -1.2670   -1.3306   -0.3817 C.2       1 <0>        -0.0478
     13 C9         -4.8981   -0.4649   -0.0611 C.ar      1 <0>        -0.0194
     14 C10        -3.5997    1.5693    0.0548 C.ar      1 <0>        -0.0194
     15 C11         5.7193    2.3304   -0.5792 C.3       1 <0>        -0.0416
     16 C12        -0.0290   -0.9092   -0.0406 C.2       1 <0>         0.0231
     17 C13         1.1401   -1.7961   -0.2385 C.2       1 <0>         0.3320
     18 C14        -7.2087    0.9206    0.2242 C.3       1 <0>         0.0788
     19 H1          5.5540   -1.5063    0.5454 H         1 <0>         0.0594
     20 H2          4.4032   -0.6952    1.6486 H         1 <0>         0.0594
     21 H3          3.4249   -2.7678    0.6593 H         1 <0>         0.0721
     22 H4          3.6503   -2.0697   -0.9768 H         1 <0>         0.0721
     23 H5          5.5025    1.3711    1.3285 H         1 <0>         0.0557
     24 H6          6.6655    0.5817    0.2307 H         1 <0>         0.0557
     25 H7         -3.7928   -2.2857   -0.3104 H         1 <0>         0.0625
     26 H8         -1.4897    1.3775   -0.1210 H         1 <0>         0.0625
     27 H9         -1.3942   -2.3279   -0.7979 H         1 <0>         0.0626
     28 H10        -5.8235   -1.0306   -0.0565 H         1 <0>         0.0654
     29 H11        -3.5454    2.6501    0.1532 H         1 <0>         0.0654
     30 H12         4.7528    2.8439   -0.5433 H         1 <0>         0.0252
     31 H13         5.9003    2.0662   -1.6264 H         1 <0>         0.0252
     32 H14         6.4992    3.0227   -0.2502 H         1 <0>         0.0252
     33 H15         0.1607    0.0622    0.4020 H         1 <0>         0.0689
     34 H16        -8.0140    1.6520    0.3479 H         1 <0>         0.0660
     35 H17        -7.3824    0.4121   -0.7302 H         1 <0>         0.0660
     36 H18        -7.2658    0.2348    1.0763 H         1 <0>         0.0660
@<TRIPOS>BOND
     1    1    5 1
     2    1    8 1
     3    2    6 1
     4    2   17 1
     5    3   11 1
     6    3   18 1
     7    4   17 2
     8    5    6 1
     9    5   19 1
    10    5   20 1
    11    6   21 1
    12    6   22 1
    13    7    9 ar
    14    7   10 ar
    15    7   12 1
    16    8   15 1
    17    8   23 1
    18    8   24 1
    19    9   13 ar
    20    9   25 1
    21   10   14 ar
    22   10   26 1
    23   11   13 ar
    24   11   14 ar
    25   12   16 2
    26   12   27 1
    27   13   28 1
    28   14   29 1
    29   15   30 1
    30   15   31 1
    31   15   32 1
    32   16   17 1
    33   16   33 1
    34   18   34 1
    35   18   35 1
    36   18   36 1
