@<TRIPOS>MOLECULE
DB15102
   62    66     0     0     0
SMALL
USER_CHARGES

@<TRIPOS>ATOM
      1 F1         -4.7089   -2.3381    0.8445 F         1 <0>        -0.1996
      2 F2         -3.1933    1.9431   -0.5333 F         1 <0>        -0.1996
      3 O1          7.7880    1.6325   -1.5906 O.3       1 <0>        -0.3772
      4 O2         -2.3002    0.9583    2.1837 O.2       1 <0>        -0.2517
      5 O3         -5.7686    2.6811   -1.1180 O.3       1 <0>        -0.4920
      6 O4         -7.2928   -1.6233    0.2674 O.3       1 <0>        -0.4920
      7 N1          5.8442    0.1590   -0.1238 N.3       1 <0>        -0.2924
      8 N2         -0.4158   -0.1804    1.4736 N.am      1 <0>        -0.2543
      9 N3         -2.5605   -0.5905    0.4674 N.am      1 <0>        -0.2453
     10 N4          3.4315   -2.1881   -0.5564 N.pl3     1 <0>        -0.3418
     11 N5          1.3094   -2.9774   -1.3105 N.ar      1 <0>        -0.2370
     12 C1          0.2221   -1.0823    0.5650 C.ar      1 <0>         0.0545
     13 C2          1.6274   -1.2391    0.4017 C.ar      1 <0>         0.0407
     14 C3          5.3555   -1.0589    0.5197 C.3       1 <0>         0.0393
     15 C4         -0.5920   -1.8906   -0.2365 C.ar      1 <0>         0.0106
     16 C5          3.9082   -1.2685    0.3315 C.cat     1 <0>         0.0324
     17 C6         -2.0745   -1.8562   -0.0764 C.3       1 <0>         0.0497
     18 C7          2.0628   -2.1818   -0.5341 C.ar      1 <0>         0.1401
     19 C8          2.8250   -0.6667    0.9328 C.2       1 <0>        -0.0288
     20 C9          7.0964    0.6113    0.4984 C.3       1 <0>         0.0228
     21 C10         6.0464   -0.0565   -1.5633 C.3       1 <0>         0.0228
     22 C11        -1.8006    0.1194    1.4240 C.2       1 <0>         0.3138
     23 C12         7.5925    1.8756   -0.1971 C.3       1 <0>         0.0604
     24 C13         6.5683    1.2231   -2.2105 C.3       1 <0>         0.0604
     25 C14         0.3936    0.5202    2.4642 C.3       1 <0>         0.0185
     26 C15        -0.0099   -2.7980   -1.1192 C.ar      1 <0>         0.0364
     27 C16        -3.9207   -0.2063    0.1620 C.ar      1 <0>         0.1161
     28 C17         0.9566    1.8114    1.9074 C.3       1 <0>        -0.0489
     29 C18        -4.9627   -1.1112    0.3653 C.ar      1 <0>         0.1891
     30 C19        -4.1910    1.0682   -0.3362 C.ar      1 <0>         0.1891
     31 C20        -5.5033    1.4381   -0.6312 C.ar      1 <0>         0.1606
     32 C21        -6.2750   -0.7414    0.0704 C.ar      1 <0>         0.1606
     33 C22        -6.5452    0.5331   -0.4281 C.ar      1 <0>         0.0276
     34 C23        -7.1331    2.9911   -1.3974 C.3       1 <0>         0.0789
     35 C24        -8.6094   -1.1776   -0.0556 C.3       1 <0>         0.0789
     36 H1          5.5136   -0.9862    1.6054 H         1 <0>         0.0490
     37 H2          5.9320   -1.9390    0.2038 H         1 <0>         0.0490
     38 H3         -2.5562   -2.0257   -1.0472 H         1 <0>         0.0519
     39 H4         -2.3635   -2.6549    0.6165 H         1 <0>         0.0519
     40 H5          2.9366    0.0980    1.6853 H         1 <0>         0.0643
     41 H6          5.1074   -0.3316   -2.0553 H         1 <0>         0.0449
     42 H7          6.7686   -0.8663   -1.7311 H         1 <0>         0.0449
     43 H8          7.8617   -0.1724    0.4241 H         1 <0>         0.0449
     44 H9          6.9383    0.8341    1.5598 H         1 <0>         0.0449
     45 H10         3.9966   -2.7821   -1.1474 H         1 <0>         0.1671
     46 H11         6.8936    2.7108   -0.0657 H         1 <0>         0.0572
     47 H12         6.7771    1.0465   -3.2705 H         1 <0>         0.0572
     48 H13         5.8348    2.0364   -2.1481 H         1 <0>         0.0572
     49 H14         8.5553    2.1801    0.2256 H         1 <0>         0.0572
     50 H15        -0.2349    0.7693    3.3284 H         1 <0>         0.0466
     51 H16         1.1574   -0.1473    2.8716 H         1 <0>         0.0466
     52 H17        -0.6356   -3.4480   -1.7265 H         1 <0>         0.0834
     53 H18         0.1514    2.5378    1.7474 H         1 <0>         0.0245
     54 H19         1.6632    2.2553    2.6156 H         1 <0>         0.0245
     55 H20         1.4573    1.6906    0.9436 H         1 <0>         0.0245
     56 H21        -7.5608    0.8193   -0.6568 H         1 <0>         0.0693
     57 H22        -7.1573    4.0186   -1.7756 H         1 <0>         0.0660
     58 H23        -7.7459    2.9746   -0.4895 H         1 <0>         0.0660
     59 H24        -7.5387    2.3536   -2.1905 H         1 <0>         0.0660
     60 H25        -9.2910   -2.0062    0.1636 H         1 <0>         0.0660
     61 H26        -8.7118   -0.9593   -1.1242 H         1 <0>         0.0660
     62 H27        -8.9193   -0.3386    0.5769 H         1 <0>         0.0660
@<TRIPOS>BOND
     1    1   29 1
     2    2   30 1
     3    3   23 1
     4    3   24 1
     5    4   22 2
     6    5   31 1
     7    5   34 1
     8    6   32 1
     9    6   35 1
    10    7   14 1
    11    7   20 1
    12    7   21 1
    13    8   12 1
    14    8   22 am
    15    8   25 1
    16    9   17 1
    17    9   22 am
    18    9   27 1
    19   10   16 1
    20   10   18 2
    21   10   45 1
    22   11   18 ar
    23   11   26 ar
    24   12   13 ar
    25   12   15 ar
    26   13   18 ar
    27   13   19 2
    28   14   16 1
    29   14   36 1
    30   14   37 1
    31   15   17 1
    32   15   26 ar
    33   16   19 1
    34   17   38 1
    35   17   39 1
    36   19   40 1
    37   20   23 1
    38   20   43 1
    39   20   44 1
    40   21   24 1
    41   21   41 1
    42   21   42 1
    43   23   46 1
    44   23   49 1
    45   24   47 1
    46   24   48 1
    47   25   28 1
    48   25   50 1
    49   25   51 1
    50   26   52 1
    51   27   29 ar
    52   27   30 ar
    53   28   53 1
    54   28   54 1
    55   28   55 1
    56   29   32 ar
    57   30   31 ar
    58   31   33 ar
    59   32   33 ar
    60   33   56 1
    61   34   57 1
    62   34   58 1
    63   34   59 1
    64   35   60 1
    65   35   61 1
    66   35   62 1
