@<TRIPOS>MOLECULE
DB15906
    4     3     0     0     0
SMALL
USER_CHARGES

@<TRIPOS>ATOM
      1 C1         -0.6000    0.0000    0.0000 C.1       1 <0>        -0.1225
      2 C2          0.6000   -0.0000    0.0000 C.1       1 <0>        -0.1225
      3 H1         -1.6650   -0.0000    0.0000 H         1 <0>         0.1225
      4 H2          1.6650    0.0000    0.0000 H         1 <0>         0.1225
@<TRIPOS>BOND
     1    1    2 3
     2    1    3 1
     3    2    4 1
