@<TRIPOS>MOLECULE
DB15694
   32    33     0     0     0
SMALL
USER_CHARGES

@<TRIPOS>ATOM
      1 F1          0.0742   -2.4020   -0.8457 F         1 <0>        -0.1980
      2 F2          1.7194   -2.8482    0.5123 F         1 <0>        -0.1980
      3 O1          1.3290    0.0704    1.3090 O.3       1 <0>        -0.3442
      4 O2          2.9202   -1.5294   -1.4786 O.3       1 <0>        -0.3830
      5 O3          3.3787    2.0065    1.1189 O.3       1 <0>        -0.3924
      6 O4         -3.3084    0.2738   -1.6422 O.3       1 <0>        -0.3743
      7 O5         -2.1298   -2.0794    1.7080 O.2       1 <0>        -0.2525
      8 N1         -0.8668   -0.4116    0.6918 N.am      1 <0>        -0.2546
      9 N2         -3.2292   -0.4385    0.5774 N.am      1 <0>        -0.2738
     10 C1          0.3920   -0.9954    1.0622 C.3       1 <0>         0.1950
     11 C2          0.9935   -1.8466   -0.0379 C.3       1 <0>         0.3184
     12 C3          1.8857   -0.8797   -0.7709 C.3       1 <0>         0.1506
     13 C4          2.4249   -0.0572    0.3847 C.3       1 <0>         0.1157
     14 C5         -0.8090    0.7684   -0.1714 C.3       1 <0>         0.0226
     15 C6         -2.0711    1.6097   -0.0669 C.3       1 <0>         0.0060
     16 C7          2.9080    1.3205   -0.0301 C.3       1 <0>         0.0731
     17 C8         -3.2762    0.7185   -0.2931 C.3       1 <0>         0.1240
     18 C9         -2.0684   -1.0481    1.0323 C.2       1 <0>         0.3061
     19 H1          0.2824   -1.5738    1.9853 H         1 <0>         0.0873
     20 H2          1.3263   -0.2719   -1.4859 H         1 <0>         0.0682
     21 H3          3.2330   -0.5829    0.9100 H         1 <0>         0.0648
     22 H4         -0.6807    0.4244   -1.2023 H         1 <0>         0.0467
     23 H5          0.0196    1.4241    0.0934 H         1 <0>         0.0467
     24 H6         -2.1270    2.0604    0.9318 H         1 <0>         0.0322
     25 H7         -2.0379    2.4180   -0.8055 H         1 <0>         0.0322
     26 H8          2.1063    1.9194   -0.4707 H         1 <0>         0.0584
     27 H9          3.7288    1.2433   -0.7501 H         1 <0>         0.0584
     28 H10        -4.2045    1.2605   -0.0876 H         1 <0>         0.0806
     29 H11        -4.1109   -0.8861    0.8075 H         1 <0>         0.1527
     30 H12         2.5029   -2.1332   -2.1166 H         1 <0>         0.2101
     31 H13         3.6885    2.8797    0.8241 H         1 <0>         0.2095
     32 H14        -3.9936   -0.4140   -1.6931 H         1 <0>         0.2117
@<TRIPOS>BOND
     1    1   11 1
     2    2   11 1
     3    3   10 1
     4    3   13 1
     5    4   12 1
     6    4   30 1
     7    5   16 1
     8    5   31 1
     9    6   17 1
    10    6   32 1
    11    7   18 2
    12    8   10 1
    13    8   14 1
    14    8   18 am
    15    9   17 1
    16    9   18 am
    17    9   29 1
    18   10   11 1
    19   10   19 1
    20   11   12 1
    21   12   13 1
    22   12   20 1
    23   13   16 1
    24   13   21 1
    25   14   15 1
    26   14   22 1
    27   14   23 1
    28   15   17 1
    29   15   24 1
    30   15   25 1
    31   16   26 1
    32   16   27 1
    33   17   28 1
