@<TRIPOS>MOLECULE
DB15465
   55    60     0     0     0
SMALL
USER_CHARGES

@<TRIPOS>ATOM
      1 O1         -0.8025   -0.7764   -0.7838 O.3       1 <0>        -0.4763
      2 O2         -2.3620    1.5673   -0.2394 O.3       1 <0>        -0.4233
      3 O3         -0.9577   -3.6608   -0.5791 O.3       1 <0>        -0.4914
      4 O4         -2.5661    0.1412    1.5790 O.2       1 <0>        -0.2445
      5 N1          3.8927    1.6880   -0.1249 N.3       1 <0>        -0.3018
      6 C1          1.2674    0.5204   -0.5448 C.3       1 <0>         0.0492
      7 C2          1.6790    1.1159    0.8093 C.3       1 <0>        -0.0079
      8 C3          3.2188    0.9180    0.9383 C.3       1 <0>         0.0181
      9 C4         -0.2388    0.5677   -0.8841 C.3       1 <0>         0.1671
     10 C5          2.0922    1.1034   -1.7132 C.3       1 <0>        -0.0262
     11 C6          1.4423   -0.9338   -0.3369 C.ar      1 <0>         0.0116
     12 C7          3.5710   -0.6279    0.9366 C.3       1 <0>        -0.0113
     13 C8          1.1107    2.5269    0.9599 C.3       1 <0>        -0.0260
     14 C9          3.5998    1.1644   -1.4596 C.3       1 <0>        -0.0002
     15 C10         2.5292   -1.5221    0.2927 C.ar      1 <0>        -0.0383
     16 C11         0.2624   -1.6098   -0.5487 C.ar      1 <0>         0.1671
     17 C12        -0.9937    1.5834   -0.0606 C.2       1 <0>         0.1464
     18 C13        -0.3824    2.4913    0.7266 C.2       1 <0>        -0.0417
     19 C14         5.3301    1.8220    0.0909 C.3       1 <0>        -0.0125
     20 C15         2.4919   -2.9059    0.4682 C.ar      1 <0>        -0.0546
     21 C16         0.1913   -2.9742   -0.3608 C.ar      1 <0>         0.1618
     22 C17         1.3361   -3.6296    0.1136 C.ar      1 <0>        -0.0160
     23 C18        -3.0374    0.7961    0.6614 C.2       1 <0>         0.3442
     24 C19        -0.9285   -5.0721   -0.3558 C.3       1 <0>         0.0790
     25 C20        -4.4933    0.8298    0.3644 C.ar      1 <0>         0.0594
     26 C21        -5.0628    1.9699   -0.2024 C.ar      1 <0>        -0.0478
     27 C22        -5.2905   -0.2778    0.6537 C.ar      1 <0>        -0.0478
     28 C23        -6.4294    2.0026   -0.4800 C.ar      1 <0>        -0.0610
     29 C24        -6.6572   -0.2452    0.3761 C.ar      1 <0>        -0.0610
     30 C25        -7.2265    0.8952   -0.1907 C.ar      1 <0>        -0.0617
     31 H1          1.2254    0.5387    1.6346 H         1 <0>         0.0329
     32 H2          3.5281    1.3344    1.9063 H         1 <0>         0.0469
     33 H3         -0.3826    0.8477   -1.9375 H         1 <0>         0.0825
     34 H4          1.7413    2.1240   -1.9186 H         1 <0>         0.0287
     35 H5          1.9178    0.5271   -2.6316 H         1 <0>         0.0287
     36 H6          3.6425   -0.9297    1.9908 H         1 <0>         0.0329
     37 H7          4.5508   -0.8310    0.4932 H         1 <0>         0.0329
     38 H8          1.5708    3.2452    0.2735 H         1 <0>         0.0312
     39 H9          1.3041    2.8825    1.9787 H         1 <0>         0.0312
     40 H10         4.0448    0.1738   -1.6131 H         1 <0>         0.0427
     41 H11         4.0428    1.8194   -2.2205 H         1 <0>         0.0427
     42 H12        -0.9797    3.2385    1.2422 H         1 <0>         0.0606
     43 H13         5.5356    2.2480    1.0792 H         1 <0>         0.0391
     44 H14         5.7593    2.5164   -0.6402 H         1 <0>         0.0391
     45 H15         5.8674    0.8723    0.0062 H         1 <0>         0.0391
     46 H16         3.3235   -3.4240    0.9383 H         1 <0>         0.0622
     47 H17         1.3750   -4.6992    0.2956 H         1 <0>         0.0655
     48 H18        -1.9235   -5.4588   -0.5984 H         1 <0>         0.0660
     49 H19        -0.7397   -5.3062    0.6974 H         1 <0>         0.0660
     50 H20        -0.2173   -5.5692   -1.0241 H         1 <0>         0.0660
     51 H21        -4.4689    2.8522   -0.4262 H         1 <0>         0.0626
     52 H22        -4.8615   -1.1748    1.0925 H         1 <0>         0.0626
     53 H23        -6.8737    2.8915   -0.9185 H         1 <0>         0.0618
     54 H24        -7.2778   -1.1076    0.6007 H         1 <0>         0.0618
     55 H25        -8.2906    0.9209   -0.4064 H         1 <0>         0.0618
@<TRIPOS>BOND
     1    1    9 1
     2    1   16 1
     3    2   17 1
     4    2   23 1
     5    3   21 1
     6    3   24 1
     7    4   23 2
     8    5    8 1
     9    5   14 1
    10    5   19 1
    11    6    7 1
    12    6    9 1
    13    6   10 1
    14    6   11 1
    15    7    8 1
    16    7   13 1
    17    7   31 1
    18    8   12 1
    19    8   32 1
    20    9   17 1
    21    9   33 1
    22   10   14 1
    23   10   34 1
    24   10   35 1
    25   11   15 ar
    26   11   16 ar
    27   12   15 1
    28   12   36 1
    29   12   37 1
    30   13   18 1
    31   13   38 1
    32   13   39 1
    33   14   40 1
    34   14   41 1
    35   15   20 ar
    36   16   21 ar
    37   17   18 2
    38   18   42 1
    39   19   43 1
    40   19   44 1
    41   19   45 1
    42   20   22 ar
    43   20   46 1
    44   21   22 ar
    45   22   47 1
    46   23   25 1
    47   24   48 1
    48   24   49 1
    49   24   50 1
    50   25   26 ar
    51   25   27 ar
    52   26   28 ar
    53   26   51 1
    54   27   29 ar
    55   27   52 1
    56   28   30 ar
    57   28   53 1
    58   29   30 ar
    59   29   54 1
    60   30   55 1
