@<TRIPOS>MOLECULE
DB15576
   22    22     0     0     0
SMALL
USER_CHARGES

@<TRIPOS>ATOM
      1 O1          1.5080   -0.0046   -0.0087 O.3       1 <0>        -0.4614
      2 O2         -1.8414   -2.3553   -0.1440 O.3       1 <0>        -0.5059
      3 O3          0.6810   -1.9714    0.8554 O.2       1 <0>        -0.2448
      4 C1         -0.8058   -0.2212    0.2146 C.ar      1 <0>         0.1003
      5 C2         -1.9336   -0.9987   -0.0487 C.ar      1 <0>         0.1308
      6 C3         -0.9211    1.1660    0.3067 C.ar      1 <0>        -0.0442
      7 C4          0.5013   -0.8371    0.3954 C.2       1 <0>         0.3427
      8 C5          2.8453   -0.4997    0.1188 C.3       1 <0>         0.0900
      9 C6         -3.1766   -0.3890   -0.2199 C.ar      1 <0>        -0.0194
     10 C7         -2.1641    1.7754    0.1354 C.ar      1 <0>        -0.0608
     11 C8         -3.2918    0.9979   -0.1279 C.ar      1 <0>        -0.0583
     12 C9          3.8111    0.5561   -0.3753 C.3       1 <0>        -0.0306
     13 H1         -0.0647    1.7989    0.5241 H         1 <0>         0.0627
     14 H2          3.0498   -0.7274    1.1707 H         1 <0>         0.0695
     15 H3          2.9538   -1.4116   -0.4786 H         1 <0>         0.0695
     16 H4         -4.0636   -0.9821   -0.4256 H         1 <0>         0.0654
     17 H5         -2.2548    2.8552    0.2101 H         1 <0>         0.0618
     18 H6         -4.2596    1.4726   -0.2605 H         1 <0>         0.0619
     19 H7          4.8451    0.2102   -0.2917 H         1 <0>         0.0262
     20 H8          3.6054    0.8071   -1.4212 H         1 <0>         0.0262
     21 H9          3.6994    1.4802    0.2011 H         1 <0>         0.0262
     22 H10        -2.7231   -2.7214   -0.3303 H         1 <0>         0.2922
@<TRIPOS>BOND
     1    1    7 1
     2    1    8 1
     3    2    5 1
     4    2   22 1
     5    3    7 2
     6    4    5 ar
     7    4    6 ar
     8    4    7 1
     9    5    9 ar
    10    6   10 ar
    11    6   13 1
    12    8   12 1
    13    8   14 1
    14    8   15 1
    15    9   11 ar
    16    9   16 1
    17   10   11 ar
    18   10   17 1
    19   11   18 1
    20   12   19 1
    21   12   20 1
    22   12   21 1
