@<TRIPOS>MOLECULE
DB15534
   51    53     0     0     0
SMALL
USER_CHARGES

@<TRIPOS>ATOM
      1 O1          0.2780   -2.1431   -1.1861 O.3       1 <0>        -0.4907
      2 O2          2.9878   -2.1227   -0.8099 O.3       1 <0>        -0.4885
      3 O3          4.1047   -0.5692    1.1857 O.3       1 <0>        -0.4913
      4 O4         -5.0109   -0.3290   -1.9170 O.2       1 <0>        -0.2840
      5 O5         -5.7313   -2.1881    0.0249 O.3       1 <0>        -0.5032
      6 O6         -0.6585    4.5119   -0.6838 O.2       1 <0>        -0.2761
      7 N1         -0.5080    2.1903   -0.6211 N.am      1 <0>        -0.3087
      8 C1         -1.5241    1.9556    0.3853 C.3       1 <0>         0.0493
      9 C2         -0.9844    2.1966    1.8129 C.3       1 <0>        -0.0263
     10 C3         -0.3280    1.0228    2.5482 C.3       1 <0>        -0.0249
     11 C4         -2.2190    0.6195    0.1085 C.2       1 <0>        -0.0157
     12 C5          0.5500    0.1737    1.6692 C.ar      1 <0>        -0.0324
     13 C6         -0.0262   -0.6251    0.6605 C.ar      1 <0>         0.0312
     14 C7         -1.5049   -0.6171    0.4648 C.2       1 <0>        -0.0088
     15 C8          0.8035   -1.3918   -0.1730 C.ar      1 <0>         0.1731
     16 C9          1.9413    0.1808    1.8341 C.ar      1 <0>        -0.0123
     17 C10        -3.4109    0.6656   -0.5157 C.2       1 <0>        -0.0057
     18 C11        -2.0947   -1.7984    0.7325 C.2       1 <0>        -0.0500
     19 C12         2.1868   -1.3764    0.0037 C.ar      1 <0>         0.2041
     20 C13         2.7542   -0.5930    1.0059 C.ar      1 <0>         0.1655
     21 C14        -4.3088   -0.4436   -0.9143 C.2       1 <0>         0.2203
     22 C15        -0.1664    3.4534   -1.0658 C.2       1 <0>         0.2104
     23 C16        -3.4929   -2.1395    0.7220 C.2       1 <0>        -0.0158
     24 C17        -4.4727   -1.6098   -0.0152 C.2       1 <0>         0.1636
     25 C18         0.9335    3.4139   -2.0927 C.3       1 <0>         0.0122
     26 C19         0.1466   -1.5107   -2.4556 C.3       1 <0>         0.0790
     27 C20         3.2821   -3.4513   -0.3852 C.3       1 <0>         0.0791
     28 C21         4.8377    0.4150    0.4592 C.3       1 <0>         0.0790
     29 H1         -2.2574    2.7619    0.2370 H         1 <0>         0.0548
     30 H2         -1.8154    2.5418    2.4430 H         1 <0>         0.0289
     31 H3         -0.2688    3.0294    1.7891 H         1 <0>         0.0289
     32 H4         -1.0992    0.3865    3.0023 H         1 <0>         0.0314
     33 H5          0.2468    1.4151    3.3969 H         1 <0>         0.0314
     34 H6         -0.0089    1.3950   -1.0084 H         1 <0>         0.1493
     35 H7          2.3949    0.7949    2.6087 H         1 <0>         0.0658
     36 H8         -3.8019    1.6347   -0.8245 H         1 <0>         0.0660
     37 H9         -1.4784   -2.6429    1.0458 H         1 <0>         0.0625
     38 H10        -3.7226   -3.0040    1.3444 H         1 <0>         0.0655
     39 H11         1.0714    4.4089   -2.5245 H         1 <0>         0.0322
     40 H12         1.8659    3.0958   -1.6178 H         1 <0>         0.0322
     41 H13         0.6760    2.7154   -2.8942 H         1 <0>         0.0322
     42 H14        -0.5369   -0.6584   -2.3989 H         1 <0>         0.0660
     43 H15        -0.2661   -2.2393   -3.1587 H         1 <0>         0.0660
     44 H16         1.1221   -1.1822   -2.8280 H         1 <0>         0.0660
     45 H17         2.3636   -4.0400   -0.2960 H         1 <0>         0.0660
     46 H18         3.8157   -3.4412    0.5704 H         1 <0>         0.0660
     47 H19         3.9235   -3.9171   -1.1383 H         1 <0>         0.0660
     48 H20         4.5182    1.4215    0.7478 H         1 <0>         0.0660
     49 H21         4.7083    0.2746   -0.6186 H         1 <0>         0.0660
     50 H22         5.8977    0.3014    0.7018 H         1 <0>         0.0660
     51 H23        -5.7130   -2.9422    0.6387 H         1 <0>         0.2923
@<TRIPOS>BOND
     1    1   15 1
     2    1   26 1
     3    2   19 1
     4    2   27 1
     5    3   20 1
     6    3   28 1
     7    4   21 2
     8    5   24 1
     9    5   51 1
    10    6   22 2
    11    7    8 1
    12    7   22 am
    13    7   34 1
    14    8    9 1
    15    8   11 1
    16    8   29 1
    17    9   10 1
    18    9   30 1
    19    9   31 1
    20   10   12 1
    21   10   32 1
    22   10   33 1
    23   11   14 1
    24   11   17 2
    25   12   13 ar
    26   12   16 ar
    27   13   14 1
    28   13   15 ar
    29   14   18 2
    30   15   19 ar
    31   16   20 ar
    32   16   35 1
    33   17   21 1
    34   17   36 1
    35   18   23 1
    36   18   37 1
    37   19   20 ar
    38   21   24 1
    39   22   25 1
    40   23   24 2
    41   23   38 1
    42   25   39 1
    43   25   40 1
    44   25   41 1
    45   26   42 1
    46   26   43 1
    47   26   44 1
    48   27   45 1
    49   27   46 1
    50   27   47 1
    51   28   48 1
    52   28   49 1
    53   28   50 1
