@<TRIPOS>MOLECULE
DB15569
   71    75     0     0     0
SMALL
USER_CHARGES

@<TRIPOS>ATOM
      1 F1         -0.1405    3.7123   -0.6043 F         1 <0>        -0.2032
      2 F2          1.9129    3.4068   -2.5608 F         1 <0>        -0.2047
      3 O1         -7.2212    0.1329   -1.4222 O.2       1 <0>        -0.2706
      4 O2          0.5925   -3.6371    1.1068 O.2       1 <0>        -0.2440
      5 O3          3.3515    2.6739    1.9405 O.3       1 <0>        -0.5060
      6 N1         -2.7127   -0.6612    0.1931 N.pl3     1 <0>        -0.3087
      7 N2         -5.2450    0.4963   -0.2554 N.am      1 <0>        -0.2948
      8 N3          1.3014   -1.4747    0.6823 N.am      1 <0>        -0.2425
      9 N4         -1.0062   -2.1355    0.6092 N.2       1 <0>        -0.1769
     10 N5          1.9023    0.8183    0.1702 N.ar      1 <0>        -0.2253
     11 N6          4.7942   -2.5003   -0.0887 N.ar      1 <0>        -0.2575
     12 C1         -3.4004   -0.9340   -1.0805 C.3       1 <0>         0.0378
     13 C2         -4.3945    0.1902   -1.4055 C.3       1 <0>         0.0333
     14 C3         -3.5458   -0.2727    1.3363 C.3       1 <0>         0.0297
     15 C4         -4.4877    0.8607    0.9466 C.3       1 <0>         0.0308
     16 C5         -1.3912   -0.9196    0.3460 C.2       1 <0>         0.1379
     17 C6         -4.0774   -2.3045   -1.0322 C.3       1 <0>        -0.0450
     18 C7         -0.4035    0.1743    0.2049 C.ar      1 <0>         0.0607
     19 C8         -6.6281    0.4460   -0.3886 C.2       1 <0>         0.2390
     20 C9          0.9451   -0.1271    0.3652 C.ar      1 <0>         0.1533
     21 C10         2.6908   -1.7885    0.8672 C.ar      1 <0>         0.0773
     22 C11         0.3148   -2.4759    0.7991 C.2       1 <0>         0.3563
     23 C12        -0.7743    1.4837   -0.1188 C.ar      1 <0>        -0.0103
     24 C13         3.4825   -2.1912   -0.1962 C.ar      1 <0>         0.0680
     25 C14         2.9057   -2.3091   -1.5700 C.3       1 <0>        -0.0023
     26 C15        -7.4452    0.7860    0.7927 C.2       1 <0>        -0.0067
     27 C16         0.2008    2.4561   -0.2909 C.ar      1 <0>         0.1502
     28 C17         3.2835   -1.6970    2.1218 C.ar      1 <0>        -0.0232
     29 C18         1.5165    2.0743   -0.1414 C.ar      1 <0>         0.1147
     30 C19         3.5706   -1.3458   -2.5694 C.3       1 <0>        -0.0572
     31 C20         2.9665   -3.7497   -2.1088 C.3       1 <0>        -0.0572
     32 C21         4.6306   -2.0067    2.2723 C.ar      1 <0>        -0.0387
     33 C22         2.5964    3.0158   -0.3161 C.ar      1 <0>         0.0797
     34 C23         2.5017   -1.2687    3.3204 C.3       1 <0>        -0.0376
     35 C24         5.3356   -2.3998    1.1461 C.ar      1 <0>         0.0283
     36 C25        -8.6494    1.3311    0.6079 C.2       1 <0>        -0.0938
     37 C26         3.4804    3.2857    0.7286 C.ar      1 <0>         0.1289
     38 C27         2.7521    3.6570   -1.5449 C.ar      1 <0>         0.1361
     39 C28         4.5205    4.1968    0.5442 C.ar      1 <0>        -0.0193
     40 C29         3.7921    4.5683   -1.7294 C.ar      1 <0>        -0.0256
     41 C30         4.6764    4.8380   -0.6847 C.ar      1 <0>        -0.0556
     42 H1         -2.6599   -0.9610   -1.8908 H         1 <0>         0.0513
     43 H2         -3.8517    1.1114   -1.6511 H         1 <0>         0.0483
     44 H3         -4.9945   -0.0709   -2.2836 H         1 <0>         0.0483
     45 H4         -2.9196    0.0525    2.1756 H         1 <0>         0.0480
     46 H5         -4.1169   -1.1432    1.6789 H         1 <0>         0.0480
     47 H6         -5.1332    1.1100    1.7889 H         1 <0>         0.0480
     48 H7         -3.9241    1.7696    0.7068 H         1 <0>         0.0480
     49 H8         -4.8484   -2.3563   -0.2566 H         1 <0>         0.0248
     50 H9         -3.3478   -3.0944   -0.8248 H         1 <0>         0.0248
     51 H10        -4.5530   -2.5323   -1.9921 H         1 <0>         0.0248
     52 H11        -1.8117    1.7649   -0.2594 H         1 <0>         0.0655
     53 H12         1.8434   -2.0456   -1.5795 H         1 <0>         0.0359
     54 H13        -7.1005    0.5572    1.7919 H         1 <0>         0.0663
     55 H14         2.4550   -4.4401   -1.4290 H         1 <0>         0.0236
     56 H15         3.0854   -1.4079   -3.5493 H         1 <0>         0.0236
     57 H16         3.4953   -0.3099   -2.2207 H         1 <0>         0.0236
     58 H17         4.6331   -1.5766   -2.7044 H         1 <0>         0.0236
     59 H18         2.4809   -3.8184   -3.0882 H         1 <0>         0.0236
     60 H19         4.0005   -4.0943   -2.2205 H         1 <0>         0.0236
     61 H20         5.1291   -1.9469    3.2337 H         1 <0>         0.0636
     62 H21         1.6427   -1.9286    3.4795 H         1 <0>         0.0278
     63 H22         3.1069   -1.3042    4.2330 H         1 <0>         0.0278
     64 H23         2.1511   -0.2383    3.2028 H         1 <0>         0.0278
     65 H24         6.3889   -2.6519    1.2099 H         1 <0>         0.0830
     66 H25        -9.2740    1.5658    1.4639 H         1 <0>         0.0536
     67 H26        -9.0452    1.5661   -0.3740 H         1 <0>         0.0536
     68 H27         5.2171    4.4173    1.3487 H         1 <0>         0.0654
     69 H28         3.9137    5.0670   -2.6863 H         1 <0>         0.0646
     70 H29         5.4861    5.5472   -0.8285 H         1 <0>         0.0620
     71 H30         4.0569    2.9867    2.5326 H         1 <0>         0.2922
@<TRIPOS>BOND
     1    1   27 1
     2    2   38 1
     3    3   19 2
     4    4   22 2
     5    5   37 1
     6    5   71 1
     7    6   12 1
     8    6   14 1
     9    6   16 1
    10    7   13 1
    11    7   15 1
    12    7   19 am
    13    8   20 1
    14    8   21 1
    15    8   22 am
    16    9   16 2
    17    9   22 1
    18   10   20 ar
    19   10   29 ar
    20   11   24 ar
    21   11   35 ar
    22   12   13 1
    23   12   17 1
    24   12   42 1
    25   13   43 1
    26   13   44 1
    27   14   15 1
    28   14   45 1
    29   14   46 1
    30   15   47 1
    31   15   48 1
    32   16   18 1
    33   17   49 1
    34   17   50 1
    35   17   51 1
    36   18   20 ar
    37   18   23 ar
    38   19   26 1
    39   21   24 ar
    40   21   28 ar
    41   23   27 ar
    42   23   52 1
    43   24   25 1
    44   25   30 1
    45   25   31 1
    46   25   53 1
    47   26   36 2
    48   26   54 1
    49   27   29 ar
    50   28   32 ar
    51   28   34 1
    52   29   33 1
    53   30   56 1
    54   30   57 1
    55   30   58 1
    56   31   55 1
    57   31   59 1
    58   31   60 1
    59   32   35 ar
    60   32   61 1
    61   33   37 ar
    62   33   38 ar
    63   34   62 1
    64   34   63 1
    65   34   64 1
    66   35   65 1
    67   36   66 1
    68   36   67 1
    69   37   39 ar
    70   38   40 ar
    71   39   41 ar
    72   39   68 1
    73   40   41 ar
    74   40   69 1
    75   41   70 1
