@<TRIPOS>MOLECULE
DB15133
   65    69     0     0     0
SMALL
USER_CHARGES

@<TRIPOS>ATOM
      1 O1          2.9480   -1.8013   -0.3576 O.3       1 <0>        -0.4886
      2 O2         -7.9282   -0.8746    0.5363 O.2       1 <0>        -0.2662
      3 N1          7.3808    0.5856    0.6668 N.3       1 <0>        -0.3053
      4 N2         -0.6786   -1.3334   -0.1860 N.ar      1 <0>        -0.2320
      5 N3         -0.1827   -3.6916   -0.1953 N.ar      1 <0>        -0.2320
      6 N4         -5.9015   -0.2136   -0.3878 N.am      1 <0>        -0.2245
      7 N5         -4.9131    0.7219   -0.5041 N.2       1 <0>        -0.1679
      8 N6          0.7837    2.7195   -0.8947 N.1       1 <0>        -0.1909
      9 C1          4.8386   -0.3444   -0.4590 C.3       1 <0>        -0.0045
     10 C2          5.4912   -1.0089    0.7580 C.3       1 <0>        -0.0342
     11 C3          5.2996    1.1134   -0.5622 C.3       1 <0>        -0.0342
     12 C4          7.0112   -0.8344    0.7392 C.3       1 <0>        -0.0010
     13 C5          6.8259    1.2173   -0.5378 C.3       1 <0>        -0.0010
     14 C6          3.3171   -0.4348   -0.3832 C.3       1 <0>         0.0926
     15 C7          8.8353    0.7383    0.7014 C.3       1 <0>        -0.0128
     16 C8          1.6059   -2.0837   -0.2917 C.ar      1 <0>         0.1566
     17 C9          0.6472   -1.0921   -0.2516 C.ar      1 <0>         0.0731
     18 C10         1.1279   -3.3779   -0.2606 C.ar      1 <0>         0.0731
     19 C11        -1.0185   -2.6363   -0.1615 C.ar      1 <0>         0.1599
     20 C12        -2.4256   -2.9324   -0.0918 C.ar      1 <0>         0.0194
     21 C13        -4.7150   -2.3432   -0.5895 C.ar      1 <0>        -0.0253
     22 C14        -5.7064   -1.4067   -1.1938 C.3       1 <0>         0.0703
     23 C15        -3.3518   -2.0559   -0.6571 C.ar      1 <0>        -0.0461
     24 C16        -2.8627   -4.0959    0.5415 C.ar      1 <0>        -0.0510
     25 C17        -5.1522   -3.5068    0.0436 C.ar      1 <0>        -0.0568
     26 C18        -4.2260   -4.3832    0.6091 C.ar      1 <0>        -0.0608
     27 C19        -5.0215    1.8160    0.1800 C.2       1 <0>         0.0916
     28 C20        -7.0167   -0.0558    0.4212 C.2       1 <0>         0.2676
     29 C21        -3.9549    2.8451    0.0588 C.ar      1 <0>         0.0033
     30 C22        -6.1341    2.1174    1.1017 C.2       1 <0>        -0.0289
     31 C23        -7.0906    1.1974    1.2014 C.2       1 <0>         0.0064
     32 C24        -2.6462    2.4627   -0.2355 C.ar      1 <0>        -0.0351
     33 C25        -4.2638    4.1935    0.2388 C.ar      1 <0>        -0.0524
     34 C26        -1.6464    3.4284   -0.3495 C.ar      1 <0>         0.0524
     35 C27        -3.2640    5.1593    0.1244 C.ar      1 <0>        -0.0599
     36 C28        -1.9553    4.7768   -0.1698 C.ar      1 <0>        -0.0443
     37 C29        -0.3054    3.0372   -0.6504 C.1       1 <0>         0.0992
     38 H1          5.1741   -0.8873   -1.3536 H         1 <0>         0.0334
     39 H2          5.0879   -0.5771    1.6835 H         1 <0>         0.0281
     40 H3          5.2590   -2.0801    0.7806 H         1 <0>         0.0281
     41 H4          4.8819    1.6993    0.2673 H         1 <0>         0.0281
     42 H5          4.9205    1.5604   -1.4889 H         1 <0>         0.0281
     43 H6          7.4162   -1.2764    1.6577 H         1 <0>         0.0426
     44 H7          7.4356   -1.3930   -0.1056 H         1 <0>         0.0426
     45 H8          7.0952    2.2804   -0.5567 H         1 <0>         0.0426
     46 H9          7.2405    0.7601   -1.4460 H         1 <0>         0.0426
     47 H10         2.8944    0.0545   -1.2699 H         1 <0>         0.0699
     48 H11         2.9698    0.0752    0.5247 H         1 <0>         0.0699
     49 H12         9.2452    0.3115    1.6235 H         1 <0>         0.0391
     50 H13         9.3232    0.2519   -0.1509 H         1 <0>         0.0391
     51 H14         9.1110    1.7987    0.6978 H         1 <0>         0.0391
     52 H15         0.8750   -0.0346   -0.2650 H         1 <0>         0.0868
     53 H16         1.8030   -4.2270   -0.2876 H         1 <0>         0.0868
     54 H17        -5.3766   -1.1010   -2.1954 H         1 <0>         0.0560
     55 H18        -6.6699   -1.9103   -1.3377 H         1 <0>         0.0560
     56 H19        -3.0238   -1.1568   -1.1736 H         1 <0>         0.0628
     57 H20        -2.1672   -4.7941    1.0009 H         1 <0>         0.0625
     58 H21        -6.2113   -3.7419    0.1064 H         1 <0>         0.0621
     59 H22        -4.5668   -5.2876    1.1046 H         1 <0>         0.0618
     60 H23        -6.1698    3.0147    1.7037 H         1 <0>         0.0641
     61 H24        -7.9356    1.3353    1.8659 H         1 <0>         0.0673
     62 H25        -2.3949    1.4126   -0.3698 H         1 <0>         0.0637
     63 H26        -5.2748    4.5383    0.4336 H         1 <0>         0.0624
     64 H27        -3.5055    6.2100    0.2564 H         1 <0>         0.0618
     65 H28        -1.1872    5.5415   -0.2574 H         1 <0>         0.0630
@<TRIPOS>BOND
     1    1   14 1
     2    1   16 1
     3    2   28 2
     4    3   12 1
     5    3   13 1
     6    3   15 1
     7    4   17 ar
     8    4   19 ar
     9    5   18 ar
    10    5   19 ar
    11    6    7 1
    12    6   22 1
    13    6   28 am
    14    7   27 2
    15    8   37 3
    16    9   10 1
    17    9   11 1
    18    9   14 1
    19    9   38 1
    20   10   12 1
    21   10   39 1
    22   10   40 1
    23   11   13 1
    24   11   41 1
    25   11   42 1
    26   12   43 1
    27   12   44 1
    28   13   45 1
    29   13   46 1
    30   14   47 1
    31   14   48 1
    32   15   49 1
    33   15   50 1
    34   15   51 1
    35   16   17 ar
    36   16   18 ar
    37   17   52 1
    38   18   53 1
    39   19   20 1
    40   20   23 ar
    41   20   24 ar
    42   21   22 1
    43   21   23 ar
    44   21   25 ar
    45   22   54 1
    46   22   55 1
    47   23   56 1
    48   24   26 ar
    49   24   57 1
    50   25   26 ar
    51   25   58 1
    52   26   59 1
    53   27   29 1
    54   27   30 1
    55   28   31 1
    56   29   32 ar
    57   29   33 ar
    58   30   31 2
    59   30   60 1
    60   31   61 1
    61   32   34 ar
    62   32   62 1
    63   33   35 ar
    64   33   63 1
    65   34   36 ar
    66   34   37 1
    67   35   36 ar
    68   35   64 1
    69   36   65 1
