@<TRIPOS>MOLECULE
DB15477
   52    55     0     0     0
SMALL
USER_CHARGES

@<TRIPOS>ATOM
      1 O1         -1.4073    1.0288    0.8175 O.3       1 <0>        -0.3649
      2 O2          1.7221    1.5866   -1.0292 O.3       1 <0>        -0.3865
      3 O3         -0.2906    2.4919   -2.8598 O.3       1 <0>        -0.3865
      4 O4         -2.5464    3.6551   -1.4887 O.3       1 <0>        -0.3865
      5 O5         -3.6837    1.7472    2.1643 O.3       1 <0>        -0.3924
      6 O6          2.7528   -2.1309   -1.6933 O.2       1 <0>        -0.2864
      7 O7          0.8958   -3.9102   -1.9473 O.3       1 <0>        -0.5060
      8 O8          5.0270   -1.2449   -0.8420 O.3       1 <0>        -0.5060
      9 O9         -4.1053   -2.6119   -0.2472 O.3       1 <0>        -0.3904
     10 C1          0.0049    1.1610    0.6357 C.3       1 <0>         0.0983
     11 C2          0.6537   -0.0871    1.2256 C.3       1 <0>         0.0395
     12 C3          0.3305    1.3357   -0.8516 C.3       1 <0>         0.1104
     13 C4         -0.4442    2.5155   -1.4392 C.3       1 <0>         0.1118
     14 C5         -1.9318    2.4314   -1.0943 C.3       1 <0>         0.1117
     15 C6         -2.1276    2.1938    0.4067 C.3       1 <0>         0.1104
     16 C7          0.0802   -1.3258    0.5679 C.ar      1 <0>        -0.0227
     17 C8          2.1618    0.0182    1.1239 C.ar      1 <0>        -0.0231
     18 C9          0.8016   -2.0543   -0.3859 C.ar      1 <0>         0.0676
     19 C10        -3.5924    1.9686    0.7685 C.3       1 <0>         0.0729
     20 C11         2.8883   -0.7072    0.1715 C.ar      1 <0>         0.0676
     21 C12         2.1926   -1.6715   -0.7064 C.2       1 <0>         0.2007
     22 C13        -1.2238   -1.7414    0.8845 C.ar      1 <0>        -0.0516
     23 C14         2.8571    0.8937    1.9744 C.ar      1 <0>        -0.0570
     24 C15         0.2291   -3.1630   -1.0220 C.ar      1 <0>         0.1283
     25 C16         4.2756   -0.5509    0.0592 C.ar      1 <0>         0.1279
     26 C17        -1.7931   -2.8499    0.2567 C.ar      1 <0>        -0.0184
     27 C18        -1.0683   -3.5570   -0.6987 C.ar      1 <0>        -0.0141
     28 C19         4.2401    1.0458    1.8680 C.ar      1 <0>        -0.0580
     29 C20         4.9476    0.3267    0.9086 C.ar      1 <0>        -0.0194
     30 C21        -3.1794   -3.2738    0.6061 C.3       1 <0>         0.0694
     31 H1          0.3495    2.0416    1.1959 H         1 <0>         0.0632
     32 H2          0.4015   -0.1642    2.2934 H         1 <0>         0.0424
     33 H3          0.0721    0.4430   -1.4318 H         1 <0>         0.0646
     34 H4         -0.0262    3.4707   -1.0965 H         1 <0>         0.0647
     35 H5         -2.3978    1.6228   -1.6716 H         1 <0>         0.0647
     36 H6         -1.7639    3.0522    0.9874 H         1 <0>         0.0646
     37 H7         -3.9983    1.0859    0.2631 H         1 <0>         0.0584
     38 H8         -4.2084    2.8357    0.5140 H         1 <0>         0.0584
     39 H9         -1.7956   -1.2177    1.6473 H         1 <0>         0.0624
     40 H10         1.9131    1.5393   -1.9808 H         1 <0>         0.2100
     41 H11         2.3201    1.4702    2.7239 H         1 <0>         0.0621
     42 H12         0.6403    2.6866   -3.0593 H         1 <0>         0.2100
     43 H13        -2.3857    3.7688   -2.4410 H         1 <0>         0.2100
     44 H14        -1.5088   -4.4204   -1.1919 H         1 <0>         0.0658
     45 H15         4.7633    1.7281    2.5315 H         1 <0>         0.0619
     46 H16         6.0245    0.4576    0.8399 H         1 <0>         0.0654
     47 H17        -3.1299    0.9764    2.3764 H         1 <0>         0.2095
     48 H18        -3.3016   -4.3562    0.4888 H         1 <0>         0.0607
     49 H19        -3.4173   -3.0254    1.6464 H         1 <0>         0.0607
     50 H20         1.8147   -3.6125   -2.0284 H         1 <0>         0.2922
     51 H21         5.9615   -0.9919   -0.7508 H         1 <0>         0.2922
     52 H22        -4.9941   -2.9106    0.0105 H         1 <0>         0.2098
@<TRIPOS>BOND
     1    1   10 1
     2    1   15 1
     3    2   12 1
     4    2   40 1
     5    3   13 1
     6    3   42 1
     7    4   14 1
     8    4   43 1
     9    5   19 1
    10    5   47 1
    11    6   21 2
    12    7   24 1
    13    7   50 1
    14    8   25 1
    15    8   51 1
    16    9   30 1
    17    9   52 1
    18   10   11 1
    19   10   12 1
    20   10   31 1
    21   11   16 1
    22   11   17 1
    23   11   32 1
    24   12   13 1
    25   12   33 1
    26   13   14 1
    27   13   34 1
    28   14   15 1
    29   14   35 1
    30   15   19 1
    31   15   36 1
    32   16   18 ar
    33   16   22 ar
    34   17   20 ar
    35   17   23 ar
    36   18   21 1
    37   18   24 ar
    38   19   37 1
    39   19   38 1
    40   20   21 1
    41   20   25 ar
    42   22   26 ar
    43   22   39 1
    44   23   28 ar
    45   23   41 1
    46   24   27 ar
    47   25   29 ar
    48   26   27 ar
    49   26   30 1
    50   27   44 1
    51   28   29 ar
    52   28   45 1
    53   29   46 1
    54   30   48 1
    55   30   49 1
