@<TRIPOS>MOLECULE
DB15916
   23    23     0     0     0
SMALL
USER_CHARGES

@<TRIPOS>ATOM
      1 O1         -3.4105   -0.9042    0.0093 O.3       1 <0>        -0.4951
      2 C1          0.5990    0.1612   -0.1152 C.ar      1 <0>        -0.0251
      3 C2          0.2334   -1.1843   -0.1531 C.ar      1 <0>        -0.0511
      4 C3         -0.3828    1.1487   -0.0353 C.ar      1 <0>        -0.0511
      5 C4         -2.0959   -0.5548   -0.0313 C.ar      1 <0>         0.1201
      6 C5         -1.1142   -1.5423   -0.1112 C.ar      1 <0>        -0.0194
      7 C6         -1.7303    0.7907    0.0067 C.ar      1 <0>        -0.0194
      8 C7          2.0039    0.5348   -0.1596 C.2       1 <0>        -0.0588
      9 C8          3.0482   -0.2707    0.1401 C.2       1 <0>        -0.0866
     10 C9          4.4782    0.1598    0.0892 C.3       1 <0>        -0.0465
     11 C10        -4.3623    0.1557    0.0908 C.3       1 <0>         0.0788
     12 H1          0.9613   -1.9860   -0.2353 H         1 <0>         0.0625
     13 H2         -0.1160    2.2025   -0.0034 H         1 <0>         0.0625
     14 H3         -1.3937   -2.5917   -0.1455 H         1 <0>         0.0654
     15 H4         -2.4408    1.6080    0.0689 H         1 <0>         0.0654
     16 H5          2.2120    1.5622   -0.4514 H         1 <0>         0.0620
     17 H6          2.8936   -1.2960    0.4627 H         1 <0>         0.0569
     18 H7          4.9345    0.0546    1.0782 H         1 <0>         0.0272
     19 H8          5.0316   -0.4693   -0.6146 H         1 <0>         0.0272
     20 H9          4.5856    1.2020   -0.2274 H         1 <0>         0.0272
     21 H10        -4.3269    0.7973   -0.7963 H         1 <0>         0.0660
     22 H11        -4.2517    0.7252    1.0198 H         1 <0>         0.0660
     23 H12        -5.3561   -0.3034    0.1138 H         1 <0>         0.0660
@<TRIPOS>BOND
     1    1    5 1
     2    1   11 1
     3    2    3 ar
     4    2    4 ar
     5    2    8 1
     6    3    6 ar
     7    3   12 1
     8    4    7 ar
     9    4   13 1
    10    5    6 ar
    11    5    7 ar
    12    6   14 1
    13    7   15 1
    14    8    9 2
    15    8   16 1
    16    9   10 1
    17    9   17 1
    18   10   18 1
    19   10   19 1
    20   10   20 1
    21   11   21 1
    22   11   22 1
    23   11   23 1
