@<TRIPOS>MOLECULE
DB15035
   64    68     0     0     0
SMALL
USER_CHARGES

@<TRIPOS>ATOM
      1 O1          7.0916    2.6781    0.4249 O.2       1 <0>        -0.2706
      2 O2         -1.1921   -4.0141   -2.2059 O.2       1 <0>        -0.2702
      3 O3         -5.6764    0.9319    1.7872 O.3       1 <0>        -0.4560
      4 N1          1.2683   -1.7946    0.4030 N.pl3     1 <0>        -0.2461
      5 N2          4.8649    2.0109    0.5222 N.am      1 <0>        -0.2980
      6 N3          1.5692   -3.5362   -1.1690 N.pl3     1 <0>        -0.3286
      7 N4          0.3275   -1.0416    1.0030 N.2       1 <0>        -0.1685
      8 N5         -2.8856   -2.7480   -1.3186 N.am      1 <0>        -0.3252
      9 C1          3.1342   -0.2694    1.0422 C.3       1 <0>        -0.0156
     10 C2          2.6780   -1.7007    0.7693 C.3       1 <0>         0.0590
     11 C3          4.5974   -0.2408    1.5039 C.3       1 <0>        -0.0323
     12 C4          2.9617    0.6070   -0.2056 C.3       1 <0>        -0.0323
     13 C5          3.5387   -2.3305   -0.3423 C.3       1 <0>        -0.0146
     14 C6          5.0745    1.1923    1.7191 C.3       1 <0>         0.0153
     15 C7          3.4811    2.0267    0.0251 C.3       1 <0>         0.0153
     16 C8          2.9625   -3.6791   -0.7785 C.3       1 <0>         0.0124
     17 C9          0.7610   -2.6773   -0.5141 C.cat     1 <0>         0.1301
     18 C10        -0.5914   -2.4420   -0.5581 C.2       1 <0>         0.1033
     19 C11        -0.8007   -1.4289    0.3997 C.2       1 <0>         0.1067
     20 C12         5.9414    2.7124   -0.0158 C.2       1 <0>         0.2389
     21 C13        -2.0567   -0.8202    0.7589 C.ar      1 <0>         0.0031
     22 C14        -1.5345   -3.1103   -1.4061 C.2       1 <0>         0.2470
     23 C15         5.6881    3.5631   -1.1959 C.2       1 <0>        -0.0067
     24 C16        -2.8283   -1.3650    1.7854 C.ar      1 <0>        -0.0490
     25 C17        -2.5017    0.3131    0.0783 C.ar      1 <0>        -0.0490
     26 C18         6.6721    3.7514   -2.0776 C.2       1 <0>        -0.0938
     27 C19        -4.0449   -0.7766    2.1311 C.ar      1 <0>        -0.0187
     28 C20        -3.7182    0.9015    0.4238 C.ar      1 <0>        -0.0187
     29 C21        -4.4897    0.3567    1.4502 C.ar      1 <0>         0.1285
     30 C22        -6.5282    1.3005    0.7593 C.ar      1 <0>         0.1284
     31 C23        -6.7582    0.4266   -0.3032 C.ar      1 <0>        -0.0193
     32 C24        -7.1558    2.5459    0.7865 C.ar      1 <0>        -0.0193
     33 C25        -7.6159    0.7980   -1.3386 C.ar      1 <0>        -0.0583
     34 C26        -8.0136    2.9172   -0.2489 C.ar      1 <0>        -0.0583
     35 C27        -8.2435    2.0432   -1.3115 C.ar      1 <0>        -0.0615
     36 H1          2.5227    0.1588    1.8486 H         1 <0>         0.0322
     37 H2          2.7724   -2.3012    1.6841 H         1 <0>         0.0549
     38 H3          4.7135   -0.8109    2.4328 H         1 <0>         0.0284
     39 H4          1.9115    0.6669   -0.5101 H         1 <0>         0.0284
     40 H5          3.5225    0.2202   -1.0604 H         1 <0>         0.0284
     41 H6          5.2617   -0.6899    0.7583 H         1 <0>         0.0284
     42 H7          4.5642   -2.5035   -0.0015 H         1 <0>         0.0301
     43 H8          3.5902   -1.7161   -1.2442 H         1 <0>         0.0301
     44 H9          3.3834    2.5870   -0.9054 H         1 <0>         0.0465
     45 H10         2.8725    2.5372    0.7808 H         1 <0>         0.0465
     46 H11         4.5144    1.6628    2.5362 H         1 <0>         0.0465
     47 H12         6.1295    1.1883    2.0109 H         1 <0>         0.0465
     48 H13         3.5376   -4.0776   -1.6213 H         1 <0>         0.0462
     49 H14         3.0359   -4.4044    0.0404 H         1 <0>         0.0462
     50 H15         1.2059   -4.1952   -1.8514 H         1 <0>         0.1475
     51 H16         4.7398    4.0675   -1.3233 H         1 <0>         0.0663
     52 H17        -2.4961   -2.2487    2.3251 H         1 <0>         0.0625
     53 H18        -1.9097    0.7524   -0.7213 H         1 <0>         0.0625
     54 H19        -3.2812   -2.0449   -0.7149 H         1 <0>         0.1453
     55 H20        -3.5605   -3.2216   -1.9113 H         1 <0>         0.1453
     56 H21         6.5121    4.3935   -2.9377 H         1 <0>         0.0536
     57 H22         7.6444    3.2798   -1.9848 H         1 <0>         0.0536
     58 H23        -4.6420   -1.2057    2.9310 H         1 <0>         0.0654
     59 H24        -4.0285    1.7969   -0.1082 H         1 <0>         0.0654
     60 H25        -6.2995   -0.5580   -0.3388 H         1 <0>         0.0654
     61 H26        -6.9798    3.2306    1.6115 H         1 <0>         0.0654
     62 H27        -7.7989    0.1157   -2.1637 H         1 <0>         0.0619
     63 H28        -8.5024    3.8868   -0.2276 H         1 <0>         0.0619
     64 H29        -8.9122    2.3321   -2.1170 H         1 <0>         0.0618
@<TRIPOS>BOND
     1    1   20 2
     2    2   22 2
     3    3   29 1
     4    3   30 1
     5    4    7 1
     6    4   10 1
     7    4   17 2
     8    5   14 1
     9    5   15 1
    10    5   20 am
    11    6   16 1
    12    6   17 1
    13    6   50 1
    14    7   19 1
    15    8   22 am
    16    8   54 1
    17    8   55 1
    18    9   10 1
    19    9   11 1
    20    9   12 1
    21    9   36 1
    22   10   13 1
    23   10   37 1
    24   11   14 1
    25   11   38 1
    26   11   41 1
    27   12   15 1
    28   12   39 1
    29   12   40 1
    30   13   16 1
    31   13   42 1
    32   13   43 1
    33   14   46 1
    34   14   47 1
    35   15   44 1
    36   15   45 1
    37   16   48 1
    38   16   49 1
    39   17   18 1
    40   18   19 2
    41   18   22 1
    42   19   21 1
    43   20   23 1
    44   21   24 ar
    45   21   25 ar
    46   23   26 2
    47   23   51 1
    48   24   27 ar
    49   24   52 1
    50   25   28 ar
    51   25   53 1
    52   26   56 1
    53   26   57 1
    54   27   29 ar
    55   27   58 1
    56   28   29 ar
    57   28   59 1
    58   30   31 ar
    59   30   32 ar
    60   31   33 ar
    61   31   60 1
    62   32   34 ar
    63   32   61 1
    64   33   35 ar
    65   33   62 1
    66   34   35 ar
    67   34   63 1
    68   35   64 1
