@<TRIPOS>MOLECULE
DB15091
   46    49     0     0     0
SMALL
USER_CHARGES

@<TRIPOS>ATOM
      1 F1         -7.1527    1.5418   -0.5931 F         1 <0>        -0.1690
      2 F2         -5.1693    2.3463   -0.1758 F         1 <0>        -0.1690
      3 F3         -5.4914    1.0787   -1.9273 F         1 <0>        -0.1690
      4 O1         -3.5635    0.9978    2.0000 O.2       1 <0>        -0.2526
      5 N1         -1.9016   -0.1795    0.9165 N.am      1 <0>        -0.2847
      6 N2          2.3800    1.2178   -0.0278 N.ar      1 <0>        -0.2919
      7 N3          1.3700    2.9141   -1.0548 N.2       1 <0>        -0.2343
      8 N4         -4.1178   -0.2841    0.1669 N.am      1 <0>        -0.2907
      9 N5          4.9376    2.1272   -0.9347 N.ar      1 <0>        -0.2324
     10 N6          5.7094    0.1799    0.2870 N.pl3     1 <0>        -0.3446
     11 C1          0.0585   -1.3421    0.2748 C.3       1 <0>        -0.0157
     12 C2          0.4752   -0.0806    1.0671 C.3       1 <0>         0.0214
     13 C3         -1.3898   -1.0631   -0.1291 C.3       1 <0>         0.0196
     14 C4         -0.8300    0.2729    1.7974 C.3       1 <0>         0.0247
     15 C5          0.9412   -1.7412   -0.8968 C.3       1 <0>        -0.0510
     16 C6          1.0569    1.0511    0.2361 C.2       1 <0>         0.0488
     17 C7         -3.2205    0.2321    1.0949 C.2       1 <0>         0.3025
     18 C8          0.4071   -2.9779   -1.5890 C.3       1 <0>        -0.0650
     19 C9          0.4510    2.1117   -0.4091 C.2       1 <0>         0.0500
     20 C10         2.5255    2.3454   -0.8040 C.ar      1 <0>         0.1566
     21 C11         3.5333    0.5096    0.3164 C.ar      1 <0>         0.0919
     22 C12         4.7251    1.0183   -0.1634 C.ar      1 <0>         0.1551
     23 C13         3.8398    2.7750   -1.2444 C.ar      1 <0>         0.0727
     24 C14         3.7692   -0.6457    1.0670 C.2       1 <0>        -0.0182
     25 C15        -5.5251    0.0398    0.1947 C.3       1 <0>         0.1083
     26 C16         5.1393   -0.8311    1.0339 C.2       1 <0>         0.0056
     27 C17        -5.8311    1.2622   -0.6336 C.3       1 <0>         0.4050
     28 H1          0.0429   -2.1759    0.9931 H         1 <0>         0.0323
     29 H2          1.2015   -0.3351    1.8435 H         1 <0>         0.0382
     30 H3         -1.4680   -0.5308   -1.0835 H         1 <0>         0.0468
     31 H4         -1.9900   -1.9772   -0.1750 H         1 <0>         0.0468
     32 H5         -0.9245   -0.3019    2.7267 H         1 <0>         0.0471
     33 H6         -0.9442    1.3346    2.0386 H         1 <0>         0.0471
     34 H7          1.0135   -0.9361   -1.6362 H         1 <0>         0.0266
     35 H8          1.9537   -1.9575   -0.5465 H         1 <0>         0.0266
     36 H9         -0.5585   -2.7918   -2.0689 H         1 <0>         0.0230
     37 H10         1.1032   -3.2991   -2.3711 H         1 <0>         0.0230
     38 H11         0.2897   -3.8085   -0.8854 H         1 <0>         0.0230
     39 H12        -0.6038    2.3437   -0.4471 H         1 <0>         0.0848
     40 H13        -3.7893   -0.8833   -0.5816 H         1 <0>         0.1506
     41 H14         3.9147    3.6827   -1.8646 H         1 <0>         0.0868
     42 H15         3.0788   -1.2974    1.5797 H         1 <0>         0.0654
     43 H16        -6.0649   -0.8267   -0.1998 H         1 <0>         0.0551
     44 H17        -5.8439    0.1961    1.2303 H         1 <0>         0.0551
     45 H18         6.6978    0.2824    0.1034 H         1 <0>         0.1668
     46 H19         5.7649   -1.5947    1.4743 H         1 <0>         0.0808
@<TRIPOS>BOND
     1    1   27 1
     2    2   27 1
     3    3   27 1
     4    4   17 2
     5    5   13 1
     6    5   14 1
     7    5   17 am
     8    6   16 2
     9    6   20 ar
    10    6   21 ar
    11    7   19 2
    12    7   20 1
    13    8   17 am
    14    8   25 1
    15    8   40 1
    16    9   22 ar
    17    9   23 ar
    18   10   22 1
    19   10   26 2
    20   10   45 1
    21   11   12 1
    22   11   13 1
    23   11   15 1
    24   11   28 1
    25   12   14 1
    26   12   16 1
    27   12   29 1
    28   13   30 1
    29   13   31 1
    30   14   32 1
    31   14   33 1
    32   15   18 1
    33   15   34 1
    34   15   35 1
    35   16   19 1
    36   18   36 1
    37   18   37 1
    38   18   38 1
    39   19   39 1
    40   20   23 ar
    41   21   22 ar
    42   21   24 2
    43   23   41 1
    44   24   26 1
    45   24   42 1
    46   25   27 1
    47   25   43 1
    48   25   44 1
    49   26   46 1
