@<TRIPOS>MOLECULE
DB15480
   19    19     0     0     0
SMALL
USER_CHARGES

@<TRIPOS>ATOM
      1 O1         -1.2845   -0.0635    0.7171 O.3       1 <0>        -0.4259
      2 O2          2.9579    1.9516   -0.1372 O.3       1 <0>        -0.5066
      3 O3         -1.7319   -0.0104   -1.5800 O.2       1 <0>        -0.2507
      4 C1          0.0410   -0.1822    0.4322 C.ar      1 <0>         0.1351
      5 C2          0.8297    0.9598    0.2918 C.ar      1 <0>         0.0222
      6 C3          0.6111   -1.4463    0.2809 C.ar      1 <0>        -0.0190
      7 C4          2.1882    0.8376   -0.0001 C.ar      1 <0>         0.1204
      8 C5          1.9696   -1.5685   -0.0108 C.ar      1 <0>        -0.0548
      9 C6          2.7581   -0.4266   -0.1513 C.ar      1 <0>        -0.0199
     10 C7         -2.1102    0.0166   -0.4165 C.2       1 <0>         0.3092
     11 C8         -3.5452    0.1446    0.0011 C.3       1 <0>         0.0336
     12 H1          0.3798    1.9424    0.4115 H         1 <0>         0.0691
     13 H2          0.0027   -2.3400    0.3896 H         1 <0>         0.0654
     14 H3          2.4133   -2.5528   -0.1285 H         1 <0>         0.0620
     15 H4          3.8158   -0.5282   -0.3787 H         1 <0>         0.0654
     16 H5         -3.8391   -0.7313    0.5843 H         1 <0>         0.0342
     17 H6         -4.1785    0.2006   -0.8889 H         1 <0>         0.0342
     18 H7         -3.6796    1.0589    0.5840 H         1 <0>         0.0342
     19 H8          2.4018    2.7378   -0.0005 H         1 <0>         0.2921
@<TRIPOS>BOND
     1    1    4 1
     2    1   10 1
     3    2    7 1
     4    2   19 1
     5    3   10 2
     6    4    5 ar
     7    4    6 ar
     8    5    7 ar
     9    5   12 1
    10    6    8 ar
    11    6   13 1
    12    7    9 ar
    13    8    9 ar
    14    8   14 1
    15    9   15 1
    16   10   11 1
    17   11   16 1
    18   11   17 1
    19   11   18 1
