@<TRIPOS>MOLECULE
DB15456
   47    50     0     0     0
SMALL
USER_CHARGES

@<TRIPOS>ATOM
      1 F1         -1.4314   -5.3916   -0.7179 F         1 <0>        -0.2039
      2 F2         -6.1695   -0.6370    0.1116 F         1 <0>        -0.2051
      3 O1          6.8257    1.0561   -0.4356 O.3       1 <0>        -0.4535
      4 O2          5.8395   -0.5255    0.8892 O.2       1 <0>        -0.2261
      5 N1         -2.6592   -0.4654    1.0373 N.pl3     1 <0>        -0.2412
      6 N2         -1.5230    0.2488    0.9425 N.2       1 <0>        -0.1652
      7 N3         -3.4927   -2.6957    0.6114 N.ar      1 <0>        -0.2330
      8 N4          1.5437   -1.1755   -0.2860 N.ar      1 <0>        -0.2093
      9 N5          1.0326    1.0459    0.4959 N.ar      1 <0>        -0.2093
     10 N6          4.5805    0.8998   -0.4825 N.am      1 <0>        -0.2452
     11 N7          3.7289   -1.7140   -1.0233 N.pl3     1 <0>        -0.3415
     12 N8          2.7104    2.7167    0.5409 N.pl3     1 <0>        -0.3415
     13 C1         -1.2067   -1.9033    0.2341 C.ar      1 <0>         0.0522
     14 C2         -2.5282   -1.7593    0.6270 C.ar      1 <0>         0.1594
     15 C3         -3.8566    0.1668    1.5391 C.3       1 <0>         0.0715
     16 C4         -0.6427   -0.6308    0.4532 C.2       1 <0>         0.1390
     17 C5         -4.5422    1.0424    0.5199 C.ar      1 <0>         0.0091
     18 C6          0.7194   -0.2315    0.2069 C.ar      1 <0>         0.1844
     19 C7         -0.7956   -3.1558   -0.2385 C.ar      1 <0>        -0.0120
     20 C8         -1.7534   -4.1692   -0.2778 C.ar      1 <0>         0.1422
     21 C9         -5.6780    0.5829   -0.1466 C.ar      1 <0>         0.1283
     22 C10        -4.0384    2.3136    0.2446 C.ar      1 <0>        -0.0541
     23 C11        -3.0476   -3.8885    0.1475 C.ar      1 <0>         0.0651
     24 C12         3.2589    0.5128   -0.2478 C.ar      1 <0>         0.1160
     25 C13         2.8115   -0.7676   -0.5024 C.ar      1 <0>         0.1435
     26 C14         2.3161    1.3857    0.2556 C.ar      1 <0>         0.1435
     27 C15        -6.3102    1.3948   -1.0884 C.ar      1 <0>        -0.0261
     28 C16        -4.6705    3.1255   -0.6973 C.ar      1 <0>        -0.0613
     29 C17        -5.8065    2.6662   -1.3638 C.ar      1 <0>        -0.0590
     30 C18         5.7470    0.3832    0.0731 C.2       1 <0>         0.4045
     31 C19         8.1099    0.6386    0.0424 C.3       1 <0>         0.0833
     32 H1         -3.5742    0.7621    2.4167 H         1 <0>         0.0560
     33 H2         -4.5327   -0.6120    1.9100 H         1 <0>         0.0560
     34 H3          0.2175   -3.3588   -0.5667 H         1 <0>         0.0654
     35 H4         -3.1578    2.6877    0.7600 H         1 <0>         0.0622
     36 H5         -3.8037   -4.6688    0.1220 H         1 <0>         0.0859
     37 H6         -7.1945    1.0368   -1.6071 H         1 <0>         0.0646
     38 H7         -4.2790    4.1158   -0.9108 H         1 <0>         0.0618
     39 H8         -6.2989    3.2983   -2.0970 H         1 <0>         0.0618
     40 H9          4.6918    1.8384   -0.8598 H         1 <0>         0.1584
     41 H10         3.3707   -2.6444   -1.2007 H         1 <0>         0.1438
     42 H11         4.4807   -1.3757   -1.6113 H         1 <0>         0.1438
     43 H12         1.9995    3.3343    0.9129 H         1 <0>         0.1438
     44 H13         3.6734    2.8841    0.8056 H         1 <0>         0.1438
     45 H14         8.8701    1.2556   -0.4441 H         1 <0>         0.0661
     46 H15         8.2881   -0.4089   -0.2181 H         1 <0>         0.0661
     47 H16         8.1770    0.7864    1.1244 H         1 <0>         0.0661
@<TRIPOS>BOND
     1    1   20 1
     2    2   21 1
     3    3   30 1
     4    3   31 1
     5    4   30 2
     6    5    6 1
     7    5   14 2
     8    5   15 1
     9    6   16 1
    10    7   14 ar
    11    7   23 ar
    12    8   18 ar
    13    8   25 ar
    14    9   18 ar
    15    9   26 ar
    16   10   24 1
    17   10   30 am
    18   10   40 1
    19   11   25 1
    20   11   41 1
    21   11   42 1
    22   12   26 1
    23   12   43 1
    24   12   44 1
    25   13   14 ar
    26   13   16 2
    27   13   19 ar
    28   15   17 1
    29   15   32 1
    30   15   33 1
    31   16   18 1
    32   17   21 ar
    33   17   22 ar
    34   19   20 ar
    35   19   34 1
    36   20   23 ar
    37   21   27 ar
    38   22   28 ar
    39   22   35 1
    40   23   36 1
    41   24   25 ar
    42   24   26 ar
    43   27   29 ar
    44   27   37 1
    45   28   29 ar
    46   28   38 1
    47   29   39 1
    48   31   45 1
    49   31   46 1
    50   31   47 1
