@<TRIPOS>MOLECULE
DB15442
   63    68     0     0     0
SMALL
USER_CHARGES

@<TRIPOS>ATOM
      1 O1         -7.6769   -0.5558    0.2786 O.2       1 <0>        -0.2686
      2 N1         -4.1823    0.2862   -0.1598 N.pl3     1 <0>        -0.3134
      3 N2         -5.8974   -1.9236   -0.1740 N.am      1 <0>        -0.3079
      4 N3         -2.2829    1.8104   -0.1088 N.ar      1 <0>        -0.1962
      5 N4         -2.9327    4.1505   -0.1067 N.ar      1 <0>        -0.2219
      6 N5          4.0295    0.6110   -0.0422 N.pl3     1 <0>        -0.3263
      7 N6          6.3437   -1.0472    0.1896 N.3       1 <0>        -0.3024
      8 N7         -0.6824    3.5129   -0.0839 N.pl3     1 <0>        -0.2684
      9 N8          0.4337    1.4184   -0.0791 N.ar      1 <0>        -0.2383
     10 C1         -3.5367   -1.0502   -0.1248 C.3       1 <0>         0.0630
     11 C2         -2.2508   -1.1240   -0.9954 C.3       1 <0>        -0.0277
     12 C3         -3.1795   -1.3858    1.3466 C.3       1 <0>        -0.0277
     13 C4         -4.5564   -2.0730   -0.7076 C.3       1 <0>         0.0356
     14 C5         -2.3958   -2.6896    1.5076 C.3       1 <0>        -0.0509
     15 C6         -1.5030   -2.4513   -0.8487 C.3       1 <0>        -0.0509
     16 C7         -1.1631   -2.7349    0.6110 C.3       1 <0>        -0.0529
     17 C8         -5.5607    0.4253   -0.0847 C.cat     1 <0>         0.1071
     18 C9         -3.6001    1.5334   -0.1325 C.ar      1 <0>         0.1469
     19 C10        -6.4818   -0.6848    0.0209 C.2       1 <0>         0.2607
     20 C11        -4.6201    2.4802   -0.1223 C.ar      1 <0>         0.0378
     21 C12        -5.8461    1.7769   -0.0958 C.2       1 <0>        -0.0209
     22 C13        -4.2427    3.8229   -0.1141 C.ar      1 <0>         0.0419
     23 C14        -2.0446    3.1353   -0.1008 C.ar      1 <0>         0.2224
     24 C15         4.0554   -0.7073   -0.6831 C.3       1 <0>         0.0250
     25 C16         4.9504    0.7862    1.0879 C.3       1 <0>         0.0250
     26 C17         6.3598    0.3262    0.7082 C.3       1 <0>         0.0144
     27 C18         5.4939   -1.1200   -1.0051 C.3       1 <0>         0.0144
     28 C19         2.8506    1.3648   -0.0527 C.ar      1 <0>         0.0482
     29 C20         0.5105    2.7682   -0.0734 C.ar      1 <0>         0.1251
     30 C21         7.7014   -1.4951   -0.1185 C.3       1 <0>        -0.0126
     31 C22         2.8887    2.7547   -0.0473 C.ar      1 <0>        -0.0359
     32 C23         1.6089    0.7502   -0.0684 C.ar      1 <0>         0.0507
     33 C24         1.7007    3.4773   -0.0578 C.ar      1 <0>        -0.0198
     34 H1         -1.5438   -0.3413   -0.7149 H         1 <0>         0.0288
     35 H2         -2.4927   -0.9510   -2.0516 H         1 <0>         0.0288
     36 H3         -4.0849   -1.4351    1.9647 H         1 <0>         0.0288
     37 H4         -2.5742   -0.5714    1.7684 H         1 <0>         0.0288
     38 H5         -4.6523   -1.9343   -1.7924 H         1 <0>         0.0485
     39 H6         -4.2613   -3.1120   -0.5392 H         1 <0>         0.0485
     40 H7         -2.0868   -2.7985    2.5539 H         1 <0>         0.0266
     41 H8         -3.0423   -3.5467    1.2882 H         1 <0>         0.0266
     42 H9         -2.0958   -3.2743   -1.2625 H         1 <0>         0.0266
     43 H10        -0.5769   -2.4111   -1.4343 H         1 <0>         0.0266
     44 H11        -0.6825   -3.7163    0.6939 H         1 <0>         0.0265
     45 H12        -0.4340   -1.9946    0.9631 H         1 <0>         0.0265
     46 H13        -6.4854   -2.7486   -0.1053 H         1 <0>         0.1491
     47 H14        -6.8374    2.2086   -0.0567 H         1 <0>         0.0647
     48 H15        -4.9490    4.6437   -0.1034 H         1 <0>         0.0838
     49 H16         5.0079    1.8338    1.4051 H         1 <0>         0.0476
     50 H17         4.5824    0.2082    1.9456 H         1 <0>         0.0476
     51 H18         3.5967   -1.4529   -0.0208 H         1 <0>         0.0476
     52 H19         3.4875   -0.6933   -1.6218 H         1 <0>         0.0476
     53 H20         5.4774   -2.1461   -1.3924 H         1 <0>         0.0442
     54 H21         5.8903   -0.4766   -1.8022 H         1 <0>         0.0442
     55 H22         6.7836    1.0164   -0.0339 H         1 <0>         0.0442
     56 H23         6.9909    0.3814    1.6034 H         1 <0>         0.0442
     57 H24        -0.5611    4.5210   -0.0784 H         1 <0>         0.1564
     58 H25         8.3259   -1.4751    0.7816 H         1 <0>         0.0391
     59 H26         8.1802   -0.8742   -0.8843 H         1 <0>         0.0391
     60 H27         7.6929   -2.5324   -0.4712 H         1 <0>         0.0391
     61 H28         3.8337    3.2912   -0.0477 H         1 <0>         0.0638
     62 H29         1.4935   -0.3289   -0.0613 H         1 <0>         0.0849
     63 H30         1.7260    4.5622   -0.0564 H         1 <0>         0.0652
@<TRIPOS>BOND
     1    1   19 2
     2    2   10 1
     3    2   17 1
     4    2   18 2
     5    3   13 1
     6    3   19 am
     7    3   46 1
     8    4   18 ar
     9    4   23 ar
    10    5   22 ar
    11    5   23 ar
    12    6   24 1
    13    6   25 1
    14    6   28 1
    15    7   26 1
    16    7   27 1
    17    7   30 1
    18    8   23 1
    19    8   29 1
    20    8   57 1
    21    9   29 ar
    22    9   32 ar
    23   10   11 1
    24   10   12 1
    25   10   13 1
    26   11   15 1
    27   11   34 1
    28   11   35 1
    29   12   14 1
    30   12   36 1
    31   12   37 1
    32   13   38 1
    33   13   39 1
    34   14   16 1
    35   14   40 1
    36   14   41 1
    37   15   16 1
    38   15   42 1
    39   15   43 1
    40   16   44 1
    41   16   45 1
    42   17   19 1
    43   17   21 1
    44   18   20 ar
    45   20   21 2
    46   20   22 ar
    47   21   47 1
    48   22   48 1
    49   24   27 1
    50   24   51 1
    51   24   52 1
    52   25   26 1
    53   25   49 1
    54   25   50 1
    55   26   55 1
    56   26   56 1
    57   27   53 1
    58   27   54 1
    59   28   31 ar
    60   28   32 ar
    61   29   33 ar
    62   30   58 1
    63   30   59 1
    64   30   60 1
    65   31   33 ar
    66   31   61 1
    67   32   62 1
    68   33   63 1
