@<TRIPOS>MOLECULE
DB15328
   66    71     0     0     0
SMALL
USER_CHARGES

@<TRIPOS>ATOM
      1 F1         -4.8679    5.4459    0.2090 F         1 <0>        -0.1690
      2 F2         -3.7055    4.3963   -1.3082 F         1 <0>        -0.1690
      3 F3         -5.6789    3.6540   -0.7319 F         1 <0>        -0.1690
      4 O1          6.0090    1.3126   -2.4353 O.2       1 <0>        -0.2744
      5 O2         -1.4411    2.7405   -0.3129 O.2       1 <0>        -0.2736
      6 O3         -0.5459   -0.7432   -3.0215 O.2       1 <0>        -0.2701
      7 N1         -3.5597    2.0552    0.3316 N.am      1 <0>        -0.2880
      8 N2          7.7700    1.2148   -0.8919 N.am      1 <0>        -0.2694
      9 N3         -0.6836    0.2225   -0.9176 N.am      1 <0>        -0.3000
     10 N4          3.3694   -2.0287   -2.2709 N.ar      1 <0>        -0.2588
     11 N5          9.1461    0.6689    1.0381 N.ar      1 <0>        -0.2398
     12 C1          5.8473   -0.0894   -0.3969 C.3       1 <0>         0.0847
     13 C2         -4.3770   -0.2154   -0.2961 C.3       1 <0>         0.0046
     14 C3          4.5235    0.5015    0.1456 C.3       1 <0>        -0.0075
     15 C4          5.5090   -1.4234   -1.1019 C.3       1 <0>         0.0083
     16 C5         -4.4526    0.9444    0.7231 C.3       1 <0>         0.0304
     17 C6         -2.9152   -0.6445   -0.4507 C.3       1 <0>        -0.0174
     18 C7         -2.0915    0.5260   -0.9648 C.3       1 <0>         0.1005
     19 C8          3.5129   -0.1646   -0.7294 C.ar      1 <0>        -0.0240
     20 C9          6.9215   -0.2159    0.6462 C.ar      1 <0>         0.0083
     21 C10         4.0538   -1.2349   -1.4298 C.ar      1 <0>         0.0458
     22 C11         6.5081    0.8978   -1.3998 C.2       1 <0>         0.2296
     23 C12        -2.3035    1.8589   -0.2497 C.2       1 <0>         0.2364
     24 C13        -5.3616   -1.3350    0.0031 C.ar      1 <0>        -0.0425
     25 C14         8.0210    0.5627    0.3131 C.ar      1 <0>         0.1291
     26 C15        -4.1517    0.5199    2.1690 C.3       1 <0>        -0.0458
     27 C16         2.1725    0.1297   -0.8847 C.ar      1 <0>        -0.0432
     28 C17        -3.9151    3.3849    0.8170 C.3       1 <0>         0.1103
     29 C18         1.4242   -0.6617   -1.7524 C.ar      1 <0>         0.0550
     30 C19         6.9583   -0.9541    1.8138 C.ar      1 <0>        -0.0529
     31 C20         0.0105   -0.4011   -1.9620 C.2       1 <0>         0.2461
     32 C21         2.0598   -1.7128   -2.4123 C.ar      1 <0>         0.0400
     33 C22        -6.6829   -1.2374   -0.4331 C.ar      1 <0>        -0.0582
     34 C23        -4.9432   -2.4598    0.7138 C.ar      1 <0>        -0.0582
     35 C24        -4.5463    4.2223   -0.2663 C.3       1 <0>         0.4053
     36 C25         8.1045   -0.8780    2.6019 C.ar      1 <0>        -0.0432
     37 C26         9.1548   -0.0645    2.1769 C.ar      1 <0>         0.0297
     38 C27        -7.5859   -2.2645   -0.1585 C.ar      1 <0>        -0.0615
     39 C28        -5.8460   -3.4870    0.9884 C.ar      1 <0>        -0.0615
     40 C29        -7.1673   -3.3893    0.5523 C.ar      1 <0>        -0.0617
     41 H1         -4.6759    0.1894   -1.2762 H         1 <0>         0.0367
     42 H2          4.4792    1.5911    0.0447 H         1 <0>         0.0327
     43 H3          4.3365    0.2249    1.1889 H         1 <0>         0.0327
     44 H4          5.6137   -2.2896   -0.4396 H         1 <0>         0.0342
     45 H5          6.0965   -1.5872   -2.0110 H         1 <0>         0.0342
     46 H6         -5.4765    1.3419    0.6986 H         1 <0>         0.0504
     47 H7         -2.4935   -1.0037    0.4953 H         1 <0>         0.0294
     48 H8         -2.8359   -1.4834   -1.1548 H         1 <0>         0.0294
     49 H9         -2.3670    0.7075   -2.0124 H         1 <0>         0.0595
     50 H10        -3.1282    0.1508    2.2854 H         1 <0>         0.0248
     51 H11        -4.8428   -0.2524    2.5174 H         1 <0>         0.0248
     52 H12        -4.2570    1.3679    2.8543 H         1 <0>         0.0248
     53 H13         8.4349    1.8397   -1.3315 H         1 <0>         0.1563
     54 H14         1.7545    0.9761   -0.3508 H         1 <0>         0.0629
     55 H15        -4.5999    3.3011    1.6669 H         1 <0>         0.0553
     56 H16        -3.0126    3.8883    1.1808 H         1 <0>         0.0553
     57 H17        -0.2065    0.4150   -0.0428 H         1 <0>         0.1498
     58 H18         6.1227   -1.5766    2.1143 H         1 <0>         0.0622
     59 H19         1.5190   -2.3625   -3.0946 H         1 <0>         0.0837
     60 H20        -7.0219   -0.3652   -0.9859 H         1 <0>         0.0620
     61 H21        -3.9271   -2.5653    1.0794 H         1 <0>         0.0620
     62 H22         8.1791   -1.4393    3.5270 H         1 <0>         0.0633
     63 H23        10.0616    0.0167    2.7682 H         1 <0>         0.0830
     64 H24        -8.6149   -2.1882   -0.4973 H         1 <0>         0.0618
     65 H25        -5.5213   -4.3617    1.5445 H         1 <0>         0.0618
     66 H26        -7.8705   -4.1887    0.7671 H         1 <0>         0.0618
@<TRIPOS>BOND
     1    1   35 1
     2    2   35 1
     3    3   35 1
     4    4   22 2
     5    5   23 2
     6    6   31 2
     7    7   16 1
     8    7   23 am
     9    7   28 1
    10    8   22 am
    11    8   25 1
    12    8   53 1
    13    9   18 1
    14    9   31 am
    15    9   57 1
    16   10   21 ar
    17   10   32 ar
    18   11   25 ar
    19   11   37 ar
    20   12   14 1
    21   12   15 1
    22   12   20 1
    23   12   22 1
    24   13   16 1
    25   13   17 1
    26   13   24 1
    27   13   41 1
    28   14   19 1
    29   14   42 1
    30   14   43 1
    31   15   21 1
    32   15   44 1
    33   15   45 1
    34   16   26 1
    35   16   46 1
    36   17   18 1
    37   17   47 1
    38   17   48 1
    39   18   23 1
    40   18   49 1
    41   19   21 ar
    42   19   27 ar
    43   20   25 ar
    44   20   30 ar
    45   24   33 ar
    46   24   34 ar
    47   26   50 1
    48   26   51 1
    49   26   52 1
    50   27   29 ar
    51   27   54 1
    52   28   35 1
    53   28   55 1
    54   28   56 1
    55   29   31 1
    56   29   32 ar
    57   30   36 ar
    58   30   58 1
    59   32   59 1
    60   33   38 ar
    61   33   60 1
    62   34   39 ar
    63   34   61 1
    64   36   37 ar
    65   36   62 1
    66   37   63 1
    67   38   40 ar
    68   38   64 1
    69   39   40 ar
    70   39   65 1
    71   40   66 1
