@<TRIPOS>MOLECULE
DB16098
   66    71     0     0     0
SMALL
USER_CHARGES

@<TRIPOS>ATOM
      1 F1          7.0786   -0.1865    1.1821 F         1 <0>        -0.2051
      2 F2          3.6982   -2.5448   -1.1743 F         1 <0>        -0.2021
      3 F3          3.7132    4.4080    1.2574 F         1 <0>        -0.1690
      4 F4          5.6858    3.6579    0.6886 F         1 <0>        -0.1690
      5 F5          4.8755    5.4395   -0.2722 F         1 <0>        -0.1690
      6 F6          5.4663   -4.5559   -1.6858 F         1 <0>        -0.2025
      7 O1         -6.0028    1.3436    2.4241 O.2       1 <0>        -0.2744
      8 O2          1.4473    2.7424    0.2821 O.2       1 <0>        -0.2736
      9 O3          0.5510   -0.7096    3.0305 O.2       1 <0>        -0.2701
     10 N1          3.5650    2.0485   -0.3557 N.am      1 <0>        -0.2880
     11 N2          0.6884    0.2319    0.9158 N.am      1 <0>        -0.3000
     12 N3         -7.7646    1.2294    0.8828 N.am      1 <0>        -0.2694
     13 N4         -3.3653   -2.0011    2.2965 N.ar      1 <0>        -0.2588
     14 N5         -9.1419    0.6624   -1.0402 N.ar      1 <0>        -0.2398
     15 C1         -5.8429   -0.0817    0.4017 C.3       1 <0>         0.0847
     16 C2          4.3813   -0.2152    0.2975 C.3       1 <0>         0.0102
     17 C3          4.4570    0.9327   -0.7349 C.3       1 <0>         0.0306
     18 C4         -4.5190    0.5021   -0.1480 C.3       1 <0>        -0.0075
     19 C5         -5.5051   -1.4078    1.1217 C.3       1 <0>         0.0083
     20 C6          2.9193   -0.6417    0.4576 C.3       1 <0>        -0.0173
     21 C7          2.0965    0.5350    0.9588 C.3       1 <0>         0.1005
     22 C8         -3.5084   -0.1546    0.7340 C.ar      1 <0>        -0.0240
     23 C9         -6.9178   -0.2193   -0.6394 C.ar      1 <0>         0.0083
     24 C10        -4.0497   -1.2165    1.4468 C.ar      1 <0>         0.0458
     25 C11        -6.5026    0.9173    1.3937 C.2       1 <0>         0.2296
     26 C12         2.3090    1.8596    0.2285 C.2       1 <0>         0.2364
     27 C13         5.3649   -1.3390    0.0106 C.ar      1 <0>         0.0307
     28 C14         4.1552    0.4919   -2.1756 C.3       1 <0>        -0.0458
     29 C15        -8.0167    0.5637   -0.3146 C.ar      1 <0>         0.1291
     30 C16         3.9210    3.3723   -0.8564 C.3       1 <0>         0.1103
     31 C17        -2.1678    0.1406    0.8852 C.ar      1 <0>        -0.0432
     32 C18        -1.4196   -0.6414    1.7616 C.ar      1 <0>         0.0550
     33 C19        -6.9556   -0.9707   -1.7985 C.ar      1 <0>        -0.0529
     34 C20        -0.0057   -0.3792    1.9675 C.2       1 <0>         0.2461
     35 C21        -2.0555   -1.6844    2.4337 C.ar      1 <0>         0.0400
     36 C22         6.6763   -1.2540    0.4784 C.ar      1 <0>         0.1298
     37 C23         4.9561   -2.4542   -0.7207 C.ar      1 <0>         0.1646
     38 C24         4.5534    4.2216    0.2171 C.3       1 <0>         0.4053
     39 C25        -8.1021   -0.9028   -2.5869 C.ar      1 <0>        -0.0432
     40 C26        -9.1518   -0.0839   -2.1706 C.ar      1 <0>         0.0297
     41 C27         5.8586   -3.4847   -0.9840 C.ar      1 <0>         0.1589
     42 C28         7.5789   -2.2844    0.2150 C.ar      1 <0>        -0.0233
     43 C29         7.1700   -3.3998   -0.5161 C.ar      1 <0>        -0.0209
     44 H1          4.6767    0.2014    1.2733 H         1 <0>         0.0369
     45 H2          5.4812    1.3296   -0.7152 H         1 <0>         0.0504
     46 H3         -4.4741    1.5927   -0.0596 H         1 <0>         0.0327
     47 H4         -4.3328    0.2136   -1.1883 H         1 <0>         0.0327
     48 H5         -5.6108   -2.2813    0.4694 H         1 <0>         0.0342
     49 H6         -6.0923   -1.5608    2.0328 H         1 <0>         0.0342
     50 H7          2.4770   -0.9801   -0.4843 H         1 <0>         0.0294
     51 H8          2.8347   -1.4798    1.1615 H         1 <0>         0.0294
     52 H9          2.3726    0.7279    2.0042 H         1 <0>         0.0595
     53 H10         3.1334    0.1171   -2.2876 H         1 <0>         0.0248
     54 H11         4.8501   -0.2793   -2.5187 H         1 <0>         0.0248
     55 H12         4.2551    1.3338   -2.8695 H         1 <0>         0.0248
     56 H13         4.6054    3.2784   -1.7055 H         1 <0>         0.0553
     57 H14         3.0186    3.8721   -1.2254 H         1 <0>         0.0553
     58 H15         0.2110    0.4150    0.0390 H         1 <0>         0.1498
     59 H16        -8.4289    1.8597    1.3156 H         1 <0>         0.1563
     60 H17        -1.7495    0.9807    0.3415 H         1 <0>         0.0629
     61 H18        -6.1206   -1.5971   -2.0924 H         1 <0>         0.0622
     62 H19        -1.5148   -2.3267    3.1230 H         1 <0>         0.0837
     63 H20        -8.1775   -1.4745   -3.5055 H         1 <0>         0.0633
     64 H21       -10.0587   -0.0089   -2.7623 H         1 <0>         0.0830
     65 H22         8.5997   -2.2181    0.5794 H         1 <0>         0.0647
     66 H23         7.8724   -4.2023   -0.7212 H         1 <0>         0.0648
@<TRIPOS>BOND
     1    1   36 1
     2    2   37 1
     3    3   38 1
     4    4   38 1
     5    5   38 1
     6    6   41 1
     7    7   25 2
     8    8   26 2
     9    9   34 2
    10   10   17 1
    11   10   26 am
    12   10   30 1
    13   11   21 1
    14   11   34 am
    15   11   58 1
    16   12   25 am
    17   12   29 1
    18   12   59 1
    19   13   24 ar
    20   13   35 ar
    21   14   29 ar
    22   14   40 ar
    23   15   18 1
    24   15   19 1
    25   15   23 1
    26   15   25 1
    27   16   17 1
    28   16   20 1
    29   16   27 1
    30   16   44 1
    31   17   28 1
    32   17   45 1
    33   18   22 1
    34   18   46 1
    35   18   47 1
    36   19   24 1
    37   19   48 1
    38   19   49 1
    39   20   21 1
    40   20   50 1
    41   20   51 1
    42   21   26 1
    43   21   52 1
    44   22   24 ar
    45   22   31 ar
    46   23   29 ar
    47   23   33 ar
    48   27   36 ar
    49   27   37 ar
    50   28   53 1
    51   28   54 1
    52   28   55 1
    53   30   38 1
    54   30   56 1
    55   30   57 1
    56   31   32 ar
    57   31   60 1
    58   32   34 1
    59   32   35 ar
    60   33   39 ar
    61   33   61 1
    62   35   62 1
    63   36   42 ar
    64   37   41 ar
    65   39   40 ar
    66   39   63 1
    67   40   64 1
    68   41   43 ar
    69   42   43 ar
    70   42   65 1
    71   43   66 1
