@<TRIPOS>MOLECULE
DB16226
  104   109     0     0     0
SMALL
USER_CHARGES

@<TRIPOS>ATOM
      1 S1         -6.7065    1.5112    0.0975 S.o2      1 <0>        -0.0022
      2 O1         -4.4120    0.2270    1.8636 O.3       1 <0>        -0.3903
      3 O2         -7.7356    2.1417   -0.7137 O.2       1 <0>        -0.1693
      4 O3         -6.9700    1.2084    1.4889 O.2       1 <0>        -0.1693
      5 O4          2.1850    0.2648    0.3330 O.3       1 <0>        -0.4874
      6 N1          8.9677   -0.5968    0.1515 N.4       1 <0>         0.2492
      7 N2          9.8422   -1.5001   -2.1304 N.3       1 <0>        -0.2874
      8 N3         -2.5055    5.6939   -0.4577 N.pl3     1 <0>        -0.3360
      9 C1         10.4997   -0.7714    0.1670 C.3       1 <0>        -0.0166
     10 C2          8.3472   -1.9678   -0.1843 C.3       1 <0>        -0.0166
     11 C3          8.6213    0.3651   -1.0026 C.3       1 <0>        -0.0166
     12 C4         10.9632   -1.3021   -1.1924 C.3       1 <0>         0.0396
     13 C5          8.8919   -2.4548   -1.5299 C.3       1 <0>         0.0396
     14 C6          9.1545   -0.2090   -2.3183 C.3       1 <0>         0.0396
     15 C7          8.4681   -0.0807    1.4557 C.3       1 <0>        -0.0040
     16 C8         -5.3423   -0.9551   -0.0844 C.3       1 <0>         0.0173
     17 C9         -4.1032   -0.2782    0.5650 C.3       1 <0>         0.0731
     18 C10        -6.2797    0.0416   -0.7795 C.3       1 <0>         0.0789
     19 C11        -4.8591   -1.9493   -1.1745 C.3       1 <0>        -0.0435
     20 C12        -6.1124   -1.7988    0.9569 C.3       1 <0>        -0.0435
     21 C13        -3.4423    0.8240   -0.3173 C.3       1 <0>         0.0376
     22 C14         6.9888    0.1056    1.4912 C.ar      1 <0>        -0.0028
     23 C15        -3.9835    2.2563   -0.1847 C.ar      1 <0>        -0.0110
     24 C16        -5.3209    2.6192    0.0637 C.ar      1 <0>         0.0921
     25 C17        -6.0441   -2.6463   -1.8148 C.3       1 <0>        -0.0527
     26 C18        -5.1702   -2.7543    1.6659 C.3       1 <0>        -0.0527
     27 C19        -1.9182    0.6722   -0.1415 C.ar      1 <0>        -0.0372
     28 C20         6.4304    1.3258    1.1107 C.ar      1 <0>        -0.0532
     29 C21         6.1637   -0.9403    1.9051 C.ar      1 <0>        -0.0532
     30 C22        -5.5657   -3.6053   -2.9044 C.3       1 <0>        -0.0559
     31 C23        -5.9305   -3.5680    2.7128 C.3       1 <0>        -0.0559
     32 C24        -3.0847    3.3329   -0.3945 C.ar      1 <0>        -0.0350
     33 C25        -5.6923    3.9712    0.2181 C.ar      1 <0>        -0.0348
     34 C26         5.0469    1.5003    1.1440 C.ar      1 <0>        -0.0549
     35 C27         4.7801   -0.7658    1.9385 C.ar      1 <0>        -0.0549
     36 C28        -3.4582    4.6729   -0.2568 C.ar      1 <0>         0.0296
     37 C29        -1.1399    0.1832   -1.1907 C.ar      1 <0>        -0.0545
     38 C30        -1.3177    1.0242    1.0673 C.ar      1 <0>        -0.0545
     39 C31         4.2219    0.4545    1.5578 C.ar      1 <0>        -0.0104
     40 C32        -4.7626    4.9922    0.0716 C.ar      1 <0>        -0.0389
     41 C33        -6.7334   -4.2965   -3.5903 C.3       1 <0>        -0.0653
     42 C34        -5.0055   -4.5118    3.4644 C.3       1 <0>        -0.0653
     43 C35         0.2389    0.0461   -1.0312 C.ar      1 <0>        -0.0196
     44 C36         0.0611    0.8870    1.2269 C.ar      1 <0>        -0.0196
     45 C37         2.7336    0.6430    1.5946 C.3       1 <0>         0.1146
     46 C38         0.8394    0.3980    0.1776 C.ar      1 <0>         0.1210
     47 C39        -1.1331    5.3621   -0.7889 C.3       1 <0>         0.0004
     48 C40        -2.8803    7.0880   -0.3228 C.3       1 <0>         0.0004
     49 H1         10.7386   -1.4710    0.9758 H         1 <0>         0.0828
     50 H2         10.9361    0.2093    0.3871 H         1 <0>         0.0828
     51 H3          7.2638   -1.8504   -0.2660 H         1 <0>         0.0828
     52 H4          8.5999   -2.6552    0.6305 H         1 <0>         0.0828
     53 H5          9.0698    1.3372   -0.7706 H         1 <0>         0.0828
     54 H6          7.5339    0.4502   -1.0722 H         1 <0>         0.0828
     55 H7         11.6963   -0.6123   -1.6295 H         1 <0>         0.0479
     56 H8         11.5056   -2.2464   -1.0565 H         1 <0>         0.0479
     57 H9          9.3776   -3.4304   -1.4012 H         1 <0>         0.0479
     58 H10         8.0622   -2.6390   -2.2245 H         1 <0>         0.0479
     59 H11         8.3320   -0.3275   -3.0353 H         1 <0>         0.0479
     60 H12         9.8384    0.5109   -2.7857 H         1 <0>         0.0479
     61 H13         8.7870   -0.7819    2.2380 H         1 <0>         0.0868
     62 H14         8.9811    0.8683    1.6593 H         1 <0>         0.0868
     63 H15        -3.3628   -1.0748    0.7216 H         1 <0>         0.0608
     64 H16        -7.2550   -0.4247   -0.9679 H         1 <0>         0.0510
     65 H17        -5.8961    0.3684   -1.7534 H         1 <0>         0.0510
     66 H18        -4.1347   -2.6771   -0.7963 H         1 <0>         0.0272
     67 H19        -4.3181   -1.4050   -1.9594 H         1 <0>         0.0272
     68 H20        -6.5405   -1.1422    1.7220 H         1 <0>         0.0272
     69 H21        -6.9863   -2.3160    0.5538 H         1 <0>         0.0272
     70 H22        -3.6247    0.5782   -1.3711 H         1 <0>         0.0423
     71 H23        -6.7355   -1.9427   -2.2865 H         1 <0>         0.0265
     72 H24        -6.6095   -3.2547   -1.1058 H         1 <0>         0.0265
     73 H25        -4.3611   -2.2392    2.1899 H         1 <0>         0.0265
     74 H26        -4.7147   -3.4686    0.9752 H         1 <0>         0.0265
     75 H27         7.0598    2.1537    0.7952 H         1 <0>         0.0622
     76 H28         6.5834   -1.8939    2.2142 H         1 <0>         0.0622
     77 H29        -3.5865    0.2819    2.3710 H         1 <0>         0.2098
     78 H30        -4.9846   -3.0586   -3.6564 H         1 <0>         0.0263
     79 H31        -4.9035   -4.3642   -2.4711 H         1 <0>         0.0263
     80 H32        -6.4135   -2.8960    3.4320 H         1 <0>         0.0263
     81 H33        -6.7233   -4.1512    2.2298 H         1 <0>         0.0263
     82 H34        -2.0660    3.0978   -0.6848 H         1 <0>         0.0639
     83 H35        -6.7217    4.2459    0.4392 H         1 <0>         0.0637
     84 H36         4.6242    2.4558    0.8448 H         1 <0>         0.0621
     85 H37         4.1480   -1.5881    2.2628 H         1 <0>         0.0621
     86 H38        -1.5922   -0.0971   -2.1381 H         1 <0>         0.0622
     87 H39        -1.8984    1.4269    1.8912 H         1 <0>         0.0622
     88 H40        -5.1110    6.0118    0.1978 H         1 <0>         0.0637
     89 H41        -6.3677   -4.9776   -4.3651 H         1 <0>         0.0230
     90 H42        -7.3200   -4.8808   -2.8743 H         1 <0>         0.0230
     91 H43        -7.3975   -3.5676   -4.0658 H         1 <0>         0.0230
     92 H44        -5.5707   -5.0852    4.2059 H         1 <0>         0.0230
     93 H45        -4.5269   -5.2202    2.7806 H         1 <0>         0.0230
     94 H46        -4.2211   -3.9580    3.9903 H         1 <0>         0.0230
     95 H47         0.8402   -0.3354   -1.8518 H         1 <0>         0.0654
     96 H48         0.4585    1.1823    2.1916 H         1 <0>         0.0654
     97 H49         2.5268    1.6996    1.8108 H         1 <0>         0.0748
     98 H50         2.3211    0.0218    2.4007 H         1 <0>         0.0748
     99 H51        -0.6683    4.7594   -0.0004 H         1 <0>         0.0428
    100 H52        -1.0731    4.8307   -1.7452 H         1 <0>         0.0428
    101 H53        -0.5151    6.2606   -0.8951 H         1 <0>         0.0428
    102 H54        -3.6619    7.3587   -1.0414 H         1 <0>         0.0428
    103 H55        -3.2248    7.3078    0.6939 H         1 <0>         0.0428
    104 H56        -2.0341    7.7562   -0.5174 H         1 <0>         0.0428
@<TRIPOS>BOND
     1    1    3 2
     2    1    4 2
     3    1   18 1
     4    1   24 1
     5    2   17 1
     6    2   77 1
     7    5   45 1
     8    5   46 1
     9    6    9 1
    10    6   10 1
    11    6   11 1
    12    6   15 1
    13    7   12 1
    14    7   13 1
    15    7   14 1
    16    8   36 1
    17    8   47 1
    18    8   48 1
    19    9   12 1
    20    9   49 1
    21    9   50 1
    22   10   13 1
    23   10   51 1
    24   10   52 1
    25   11   14 1
    26   11   53 1
    27   11   54 1
    28   12   55 1
    29   12   56 1
    30   13   57 1
    31   13   58 1
    32   14   59 1
    33   14   60 1
    34   15   22 1
    35   15   61 1
    36   15   62 1
    37   16   17 1
    38   16   18 1
    39   16   19 1
    40   16   20 1
    41   17   21 1
    42   17   63 1
    43   18   64 1
    44   18   65 1
    45   19   25 1
    46   19   66 1
    47   19   67 1
    48   20   26 1
    49   20   68 1
    50   20   69 1
    51   21   23 1
    52   21   27 1
    53   21   70 1
    54   22   28 ar
    55   22   29 ar
    56   23   24 ar
    57   23   32 ar
    58   24   33 ar
    59   25   30 1
    60   25   71 1
    61   25   72 1
    62   26   31 1
    63   26   73 1
    64   26   74 1
    65   27   37 ar
    66   27   38 ar
    67   28   34 ar
    68   28   75 1
    69   29   35 ar
    70   29   76 1
    71   30   41 1
    72   30   78 1
    73   30   79 1
    74   31   42 1
    75   31   80 1
    76   31   81 1
    77   32   36 ar
    78   32   82 1
    79   33   40 ar
    80   33   83 1
    81   34   39 ar
    82   34   84 1
    83   35   39 ar
    84   35   85 1
    85   36   40 ar
    86   37   43 ar
    87   37   86 1
    88   38   44 ar
    89   38   87 1
    90   39   45 1
    91   40   88 1
    92   41   89 1
    93   41   90 1
    94   41   91 1
    95   42   92 1
    96   42   93 1
    97   42   94 1
    98   43   46 ar
    99   43   95 1
   100   44   46 ar
   101   44   96 1
   102   45   97 1
   103   45   98 1
   104   47   99 1
   105   47  100 1
   106   47  101 1
   107   48  102 1
   108   48  103 1
   109   48  104 1
