@<TRIPOS>MOLECULE
DB16165
   50    52     0     0     0
SMALL
USER_CHARGES

@<TRIPOS>ATOM
      1 O1          1.0530    2.0271    0.6276 O.3       1 <0>        -0.4764
      2 O2          2.4700   -0.8071    1.1454 O.3       1 <0>        -0.4948
      3 O3         -0.3387   -3.8129    0.4196 O.2       1 <0>        -0.2707
      4 N1         -3.1008   -0.2992   -0.1236 N.pl3     1 <0>        -0.3170
      5 N2         -0.8063    3.2280   -0.0139 N.ar      1 <0>        -0.2207
      6 N3         -0.8636   -3.0256    2.5258 N.am      1 <0>        -0.3255
      7 N4          4.4059   -1.9662   -4.2634 N.1       1 <0>        -0.1909
      8 C1         -0.3107   -0.5174    0.5339 C.3       1 <0>         0.0508
      9 C2         -0.9757    0.8199    0.2300 C.ar      1 <0>         0.0475
     10 C3         -1.3068   -1.6745    0.6234 C.2       1 <0>         0.0428
     11 C4         -2.3361    0.8758   -0.1120 C.ar      1 <0>         0.0447
     12 C5          0.7301   -0.8333   -0.5029 C.ar      1 <0>         0.0065
     13 C6         -2.6066   -1.5281    0.2780 C.2       1 <0>         0.0140
     14 C7         -0.2704    2.0204    0.2704 C.ar      1 <0>         0.2207
     15 C8         -2.9126    2.1094   -0.4158 C.ar      1 <0>        -0.0107
     16 C9          2.0728   -0.9637   -0.1486 C.ar      1 <0>         0.1254
     17 C10         0.3406   -0.9969   -1.8323 C.ar      1 <0>        -0.0530
     18 C11        -0.7861   -2.9447    1.1585 C.2       1 <0>         0.2399
     19 C12        -3.6237   -2.6401    0.2916 C.3       1 <0>        -0.0260
     20 C13        -2.1135    3.2401   -0.3536 C.ar      1 <0>         0.0361
     21 C14        -4.3478    2.2496   -0.7943 C.3       1 <0>        -0.0365
     22 C15         3.0260   -1.2576   -1.1236 C.ar      1 <0>        -0.0023
     23 C16         1.2938   -1.2905   -2.8074 C.ar      1 <0>        -0.0438
     24 C17         2.6366   -1.4209   -2.4531 C.ar      1 <0>         0.0552
     25 C18         1.7042    3.2917    0.6455 C.3       1 <0>         0.0884
     26 C19         3.8618   -0.9576    1.4182 C.3       1 <0>         0.0788
     27 C20         3.1431    3.0993    1.0745 C.3       1 <0>        -0.0306
     28 C21         3.6129   -1.7218   -3.4521 C.1       1 <0>         0.0993
     29 H1          0.1310   -0.4125    1.5340 H         1 <0>         0.0451
     30 H2         -4.0778   -0.2530   -0.3823 H         1 <0>         0.1519
     31 H3         -0.6976   -0.9007   -2.1378 H         1 <0>         0.0622
     32 H4         -4.4247   -2.4084    1.0018 H         1 <0>         0.0290
     33 H5         -3.2029   -3.6091    0.5729 H         1 <0>         0.0290
     34 H6         -4.0684   -2.7555   -0.7031 H         1 <0>         0.0290
     35 H7         -2.5074    4.2269   -0.5774 H         1 <0>         0.0834
     36 H8         -4.5671    1.6614   -1.6916 H         1 <0>         0.0279
     37 H9         -4.9942    1.9170    0.0246 H         1 <0>         0.0279
     38 H10        -4.6113    3.2895   -1.0162 H         1 <0>         0.0279
     39 H11         4.0837   -1.3704   -0.9072 H         1 <0>         0.0667
     40 H12         0.9747   -1.4149   -3.8395 H         1 <0>         0.0630
     41 H13        -1.2434   -2.2774    3.0975 H         1 <0>         0.1452
     42 H14        -0.5375   -3.8507    3.0180 H         1 <0>         0.1452
     43 H15         1.6878    3.7400   -0.3552 H         1 <0>         0.0694
     44 H16         1.2100    3.9633    1.3579 H         1 <0>         0.0694
     45 H17         3.9970   -0.7982    2.4931 H         1 <0>         0.0660
     46 H18         4.4589   -0.1940    0.9082 H         1 <0>         0.0660
     47 H19         4.2083   -1.9741    1.2028 H         1 <0>         0.0660
     48 H20         3.6741    4.0548    1.1051 H         1 <0>         0.0262
     49 H21         3.6639    2.4278    0.3837 H         1 <0>         0.0262
     50 H22         3.1916    2.6351    2.0651 H         1 <0>         0.0262
@<TRIPOS>BOND
     1    1   14 1
     2    1   25 1
     3    2   16 1
     4    2   26 1
     5    3   18 2
     6    4   11 1
     7    4   13 1
     8    4   30 1
     9    5   14 ar
    10    5   20 ar
    11    6   18 am
    12    6   41 1
    13    6   42 1
    14    7   28 3
    15    8    9 1
    16    8   10 1
    17    8   12 1
    18    8   29 1
    19    9   11 ar
    20    9   14 ar
    21   10   13 2
    22   10   18 1
    23   11   15 ar
    24   12   16 ar
    25   12   17 ar
    26   13   19 1
    27   15   20 ar
    28   15   21 1
    29   16   22 ar
    30   17   23 ar
    31   17   31 1
    32   19   32 1
    33   19   33 1
    34   19   34 1
    35   20   35 1
    36   21   36 1
    37   21   37 1
    38   21   38 1
    39   22   24 ar
    40   22   39 1
    41   23   24 ar
    42   23   40 1
    43   24   28 1
    44   25   27 1
    45   25   43 1
    46   25   44 1
    47   26   45 1
    48   26   46 1
    49   26   47 1
    50   27   48 1
    51   27   49 1
    52   27   50 1
