@<TRIPOS>MOLECULE
DB16022
   37    38     0     0     0
SMALL
USER_CHARGES

@<TRIPOS>ATOM
      1 S1         -3.0912   -3.3418   -1.5623 S.3       1 <0>        -0.1047
      2 N1         -0.3982   -0.0093    0.1718 N.pl3     1 <0>        -0.3096
      3 N2          3.2929    0.0388   -0.2360 N.3       1 <0>        -0.3069
      4 N3         -2.2970    1.3362    0.6820 N.ar      1 <0>        -0.2403
      5 C1          0.8675   -0.2126   -0.4917 C.3       1 <0>         0.0266
      6 C2          1.9999    0.2632    0.4096 C.3       1 <0>         0.0141
      7 C3         -0.9509   -1.1008    0.9755 C.3       1 <0>         0.0391
      8 C4         -1.1025    1.1966    0.0489 C.ar      1 <0>         0.1215
      9 C5         -1.9773   -1.8953    0.2123 C.2       1 <0>        -0.0232
     10 C6          3.4696   -1.3791   -0.5475 C.3       1 <0>        -0.0130
     11 C7          4.3802    0.5138    0.6188 C.3       1 <0>        -0.0130
     12 C8         -0.5341    2.2037   -0.7266 C.ar      1 <0>        -0.0217
     13 C9         -3.3104   -2.0523    0.6487 C.2       1 <0>        -0.0500
     14 C10        -1.7063   -2.5321   -0.9633 C.2       1 <0>        -0.0197
     15 C11        -4.0360   -2.8247   -0.2312 C.2       1 <0>        -0.0240
     16 C12        -1.2206    3.4057   -0.8580 C.ar      1 <0>        -0.0571
     17 C13        -2.9353    2.5184    0.5311 C.ar      1 <0>         0.0297
     18 C14        -2.4447    3.5741   -0.2203 C.ar      1 <0>        -0.0435
     19 H1          0.9634   -1.2902   -0.6608 H         1 <0>         0.0477
     20 H2          0.9134    0.2105   -1.5015 H         1 <0>         0.0477
     21 H3          1.8814    1.3337    0.6165 H         1 <0>         0.0442
     22 H4          1.9508   -0.2493    1.3802 H         1 <0>         0.0442
     23 H5         -1.3714   -0.7149    1.9133 H         1 <0>         0.0514
     24 H6         -0.1496   -1.7854    1.2857 H         1 <0>         0.0514
     25 H7          2.8573   -1.6906   -1.3995 H         1 <0>         0.0391
     26 H8          3.2611   -2.0288    0.3105 H         1 <0>         0.0391
     27 H9          4.5021   -1.5734   -0.8636 H         1 <0>         0.0391
     28 H10         5.3459    0.4009    0.1133 H         1 <0>         0.0391
     29 H11         4.4241   -0.0263    1.5716 H         1 <0>         0.0391
     30 H12         4.2641    1.5821    0.8327 H         1 <0>         0.0391
     31 H13         0.4216    2.1368   -1.2302 H         1 <0>         0.0652
     32 H14        -3.7314   -1.6306    1.5523 H         1 <0>         0.0626
     33 H15        -0.7784   -2.5810   -1.5143 H         1 <0>         0.0696
     34 H16        -5.0759   -3.1099   -0.1561 H         1 <0>         0.0693
     35 H17        -0.8015    4.2121   -1.4524 H         1 <0>         0.0619
     36 H18        -3.8856    2.5989    1.0484 H         1 <0>         0.0830
     37 H19        -2.9969    4.5027   -0.3078 H         1 <0>         0.0633
@<TRIPOS>BOND
     1    1   14 1
     2    1   15 1
     3    2    5 1
     4    2    7 1
     5    2    8 1
     6    3    6 1
     7    3   10 1
     8    3   11 1
     9    4    8 ar
    10    4   17 ar
    11    5    6 1
    12    5   19 1
    13    5   20 1
    14    6   21 1
    15    6   22 1
    16    7    9 1
    17    7   23 1
    18    7   24 1
    19    8   12 ar
    20    9   13 1
    21    9   14 2
    22   10   25 1
    23   10   26 1
    24   10   27 1
    25   11   28 1
    26   11   29 1
    27   11   30 1
    28   12   16 ar
    29   12   31 1
    30   13   15 2
    31   13   32 1
    32   14   33 1
    33   15   34 1
    34   16   18 ar
    35   16   35 1
    36   17   18 ar
    37   17   36 1
    38   18   37 1
