@<TRIPOS>MOLECULE
DB16390
   82    85     0     0     0
SMALL
USER_CHARGES

@<TRIPOS>ATOM
      1 O1          2.5057   -3.7994   -0.4999 O.3       1 <0>        -0.4932
      2 O2         -5.8359   -1.6104    0.0982 O.3       1 <0>        -0.4583
      3 O3         -5.8756   -2.1310    2.3401 O.2       1 <0>        -0.2448
      4 O4          0.0366    1.8415    1.5624 O.2       1 <0>        -0.2705
      5 N1          4.4381    0.5839   -0.7664 N.pl3     1 <0>        -0.3302
      6 N2         -4.3979    2.1320    0.7185 N.pl3     1 <0>        -0.3490
      7 N3          7.7250    0.0561    0.8790 N.3       1 <0>        -0.3069
      8 N4          0.2160   -2.7757    0.7691 N.pl3     1 <0>        -0.2806
      9 N5         -1.6219   -1.3269    0.5975 N.ar      1 <0>        -0.2133
     10 N6          2.1342    1.6449    0.5148 N.am      1 <0>        -0.2804
     11 N7         -1.9103   -3.6140    1.3001 N.ar      1 <0>        -0.2218
     12 C1          5.5292    0.8520    0.1472 C.3       1 <0>         0.0247
     13 C2         -3.4267    0.1598    0.4123 C.2       1 <0>         0.0265
     14 C3         -3.3398    0.8922   -0.8047 C.2       1 <0>         0.0090
     15 C4         -3.9565    2.1258   -0.5855 C.2       1 <0>         0.0495
     16 C5          3.3680   -0.2514   -0.3747 C.ar      1 <0>         0.0546
     17 C6          6.6055   -0.2137   -0.0145 C.3       1 <0>         0.0140
     18 C7         -4.0823    0.9483    1.3297 C.2       1 <0>         0.0146
     19 C8         -2.9539   -1.1572    0.7303 C.ar      1 <0>         0.0920
     20 C9          2.2396    0.2757    0.2535 C.ar      1 <0>         0.0569
     21 C10         1.2773   -1.9367    0.3816 C.ar      1 <0>         0.0776
     22 C11         3.4510   -1.6213   -0.6247 C.ar      1 <0>         0.0048
     23 C12         2.4058   -2.4639   -0.2466 C.ar      1 <0>         0.1431
     24 C13        -2.7938    0.6232   -2.0755 C.2       1 <0>        -0.0519
     25 C14         1.1942   -0.5670    0.6314 C.ar      1 <0>        -0.0138
     26 C15        -4.0551    3.1077   -1.5777 C.2       1 <0>        -0.0376
     27 C16         4.4510    1.1869   -2.0829 C.3       1 <0>         0.0008
     28 C17        -3.8171   -2.1538    1.1373 C.ar      1 <0>         0.1031
     29 C18        -5.0953    3.2228    1.3649 C.3       1 <0>         0.0119
     30 C19        -1.1742   -2.5618    0.8944 C.ar      1 <0>         0.2201
     31 C20        -2.8851    1.5960   -3.0776 C.2       1 <0>        -0.0611
     32 C21        -3.5066    2.8184   -2.8303 C.2       1 <0>        -0.0598
     33 C22         8.5083   -1.1598    1.1067 C.3       1 <0>        -0.0130
     34 C23         8.5778    1.1136    0.3328 C.3       1 <0>        -0.0130
     35 C24        -3.2334   -3.3739    1.4114 C.ar      1 <0>         0.0473
     36 C25        -5.2533   -1.9748    1.2813 C.2       1 <0>         0.3430
     37 C26         1.0771    2.3245    1.1320 C.2       1 <0>         0.2406
     38 C27        -7.2524   -1.4033    0.1117 C.3       1 <0>         0.0978
     39 C28         3.6953   -4.2484   -1.1458 C.3       1 <0>         0.0789
     40 C29        -7.9542   -2.7217   -0.1762 C.3       1 <0>        -0.0280
     41 C30        -7.6120   -0.3350   -0.9096 C.3       1 <0>        -0.0280
     42 C31         1.3472    3.7886    1.2259 C.2       1 <0>        -0.0066
     43 C32         0.4537    4.6104    1.7855 C.2       1 <0>        -0.0938
     44 H1          5.9200    1.8562   -0.0495 H         1 <0>         0.0476
     45 H2          5.1657    0.8691    1.1835 H         1 <0>         0.0476
     46 H3          6.1604   -1.1811    0.2496 H         1 <0>         0.0442
     47 H4          6.9290   -0.3025   -1.0603 H         1 <0>         0.0442
     48 H5         -4.3463    0.7709    2.3647 H         1 <0>         0.0816
     49 H6          4.3462   -1.9719   -1.1272 H         1 <0>         0.0674
     50 H7         -2.3064   -0.3247   -2.2852 H         1 <0>         0.0624
     51 H8          0.3425   -0.2093    1.1826 H         1 <0>         0.0656
     52 H9          5.3955    1.7039   -2.2841 H         1 <0>         0.0428
     53 H10         3.6419    1.9182   -2.1803 H         1 <0>         0.0428
     54 H11         4.3239    0.4245   -2.8591 H         1 <0>         0.0428
     55 H12        -4.5376    4.0614   -1.3916 H         1 <0>         0.0638
     56 H13        -5.3238    2.9519    2.3987 H         1 <0>         0.0456
     57 H14        -4.4489    4.1039    1.3474 H         1 <0>         0.0456
     58 H15        -6.0230    3.4105    0.8181 H         1 <0>         0.0456
     59 H16         0.4708   -3.7536    0.8699 H         1 <0>         0.1551
     60 H17        -2.4658    1.3940   -4.0597 H         1 <0>         0.0618
     61 H18        -3.5662    3.5597   -3.6231 H         1 <0>         0.0618
     62 H19         2.9340    2.1978    0.2140 H         1 <0>         0.1552
     63 H20         8.0441    2.0645    0.2451 H         1 <0>         0.0391
     64 H21         8.9846    0.8520   -0.6509 H         1 <0>         0.0391
     65 H22         9.4214    1.3057    1.0061 H         1 <0>         0.0391
     66 H23         7.8923   -1.9347    1.5766 H         1 <0>         0.0391
     67 H24         9.3363   -0.9612    1.7964 H         1 <0>         0.0391
     68 H25         8.9231   -1.5636    0.1760 H         1 <0>         0.0391
     69 H26        -3.8230   -4.2252    1.7376 H         1 <0>         0.0840
     70 H27        -7.5733   -1.0308    1.0926 H         1 <0>         0.0728
     71 H28         3.7924   -3.8276   -2.1525 H         1 <0>         0.0660
     72 H29         4.5830   -4.0701   -0.5292 H         1 <0>         0.0660
     73 H30         3.6061   -5.3334   -1.2645 H         1 <0>         0.0660
     74 H31        -7.6370   -3.1293   -1.1425 H         1 <0>         0.0265
     75 H32        -7.2889   -0.6302   -1.9140 H         1 <0>         0.0265
     76 H33        -9.0415   -2.5988   -0.1883 H         1 <0>         0.0265
     77 H34        -8.6894   -0.1455   -0.9281 H         1 <0>         0.0265
     78 H35        -7.0958    0.6027   -0.6775 H         1 <0>         0.0265
     79 H36        -7.6996   -3.4721    0.5796 H         1 <0>         0.0265
     80 H37         2.2792    4.1814    0.8344 H         1 <0>         0.0663
     81 H38        -0.4902    4.2609    2.1887 H         1 <0>         0.0536
     82 H39         0.6604    5.6737    1.8487 H         1 <0>         0.0536
@<TRIPOS>BOND
     1    1   23 1
     2    1   39 1
     3    2   36 1
     4    2   38 1
     5    3   36 2
     6    4   37 2
     7    5   12 1
     8    5   16 1
     9    5   27 1
    10    6   15 1
    11    6   18 2
    12    6   29 1
    13    7   17 1
    14    7   33 1
    15    7   34 1
    16    8   21 1
    17    8   30 1
    18    8   59 1
    19    9   19 ar
    20    9   30 ar
    21   10   20 1
    22   10   37 am
    23   10   62 1
    24   11   30 ar
    25   11   35 ar
    26   12   17 1
    27   12   44 1
    28   12   45 1
    29   13   14 2
    30   13   18 1
    31   13   19 1
    32   14   15 1
    33   14   24 2
    34   15   26 2
    35   16   20 ar
    36   16   22 ar
    37   17   46 1
    38   17   47 1
    39   18   48 1
    40   19   28 ar
    41   20   25 ar
    42   21   23 ar
    43   21   25 ar
    44   22   23 ar
    45   22   49 1
    46   24   31 1
    47   24   50 1
    48   25   51 1
    49   26   32 1
    50   26   55 1
    51   27   52 1
    52   27   53 1
    53   27   54 1
    54   28   35 ar
    55   28   36 1
    56   29   56 1
    57   29   57 1
    58   29   58 1
    59   31   32 2
    60   31   60 1
    61   32   61 1
    62   33   66 1
    63   33   67 1
    64   33   68 1
    65   34   63 1
    66   34   64 1
    67   34   65 1
    68   35   69 1
    69   37   42 1
    70   38   40 1
    71   38   41 1
    72   38   70 1
    73   39   71 1
    74   39   72 1
    75   39   73 1
    76   40   74 1
    77   40   76 1
    78   40   79 1
    79   41   75 1
    80   41   77 1
    81   41   78 1
    82   42   43 2
    83   42   80 1
    84   43   81 1
    85   43   82 1
